/*---------------------------------------------------------------------------*\
| =========                 |                                                 |
| \\      /  F ield         | OpenFOAM: The Open Source CFD Toolbox           |
|  \\    /   O peration     | Version:  2506                                  |
|   \\  /    A nd           | Website:  www.openfoam.com                      |
|    \\/     M anipulation  |                                                 |
\*---------------------------------------------------------------------------*/
Build  : _615aae61d7-20250627 OPENFOAM=2506 version=v2506
Arch   : "LSB;label=32;scalar=64"
Exec   : chtMultiRegionNewFoam
Date   : Feb 22 2026
Time   : 11:09:35
Host   : dym
PID    : 26352
I/O    : uncollated
Case   : /home/dym/OpenFOAM/dym-v2506/run/Changesolver
nProcs : 1
trapFpe: Floating point exception trapping enabled (FOAM_SIGFPE).
fileModificationChecking : Monitoring run-time modified files using timeStampMaster (fileModificationSkew 5, maxFileModificationPolls 20)
allowSystemOperations : Allowing user-supplied system call operations

// * * * * * * * * * * * * * * * * * * * * * * * * * * * * * * * * * * * * * //
Create time

Create fluid mesh for region air for time = 0

Create solid mesh for region solid for time = 0

Create solid mesh for region floor for time = 0

*** Reading fluid mesh thermophysical properties for region air

    Adding to thermoFluid

Selecting thermodynamics package 
{
    type            heRhoThermo;
    mixture         pureMixture;
    transport       const;
    thermo          hConst;
    equationOfState perfectGas;
    specie          specie;
    energy          sensibleEnthalpy;
}

    Adding to rhoFluid

    Adding to UFluid

    Adding to phiFluid

    Adding to hRefFluid

    Adding to ghFluid

    Adding to ghfFluid

    Adding to turbulenceFluid

Selecting turbulence model type RAS
Selecting RAS turbulence model kEpsilon
RAS
{
    RASModel        kEpsilon;
    turbulence      on;
    printCoeffs     on;
    Cmu             0.09;
    C1              1.44;
    C2              1.92;
    C3              0;
    sigmak          1;
    sigmaEps        1.3;
}

    Adding to reactionFluid

Combustion model not active: combustionProperties not found
Selecting combustion model none
    Adding to radiationFluid

Selecting radiationModel viewFactor
Selecting absorptionEmissionModel none
Selecting scatterModel none
Selecting sootModel none
Selecting absorptionEmissionModel none
Selecting scatterModel none
Selecting sootModel none
Selecting boundary radiation Model: transparent
Selecting boundary radiation Model: transparent
Selecting boundary radiation Model: transparent
Selecting boundary radiation Model: transparent
Selecting boundary radiation Model: transparent
Selecting boundary radiation Model: opaqueReflective
Selecting boundary radiation Model: opaqueDiffusive
Number of 'potential' direct hits : 1668
Total number of hit faces : 1627
Creating Solar Load Model 
    Adding to KFluid

    Adding to dpdtFluid

    Adding to fieldsFluid

    Adding to QdotFluid

    Adding MRF

No MRF models present

    Adding fvOptions

Creating finite volume options from "system/fvOptions"

Selecting finite volume options type scalarSemiImplicitSource
    Source: humidityKSource
    State: active
    - selecting all cells
    - selected 33752 cell(s) with volume 998.8349
*** Reading solid mesh thermophysical properties for region solid

    Adding to thermos

Selecting thermodynamics package 
{
    type            heSolidThermo;
    mixture         pureMixture;
    transport       constIso;
    thermo          hConst;
    equationOfState rhoConst;
    specie          specie;
    energy          sensibleEnthalpy;
}

    Adding to radiations

Selecting radiationModel none
    Adding fvOptions

Creating finite volume options from "system/fvOptions"

Selecting finite volume options type scalarSemiImplicitSource
    Source: solidAbsoluteEnergySource
    State: active
    - selecting cells using cellZones (solid)
    - selected 2304 cell(s) with volume 1.165146
Selecting finite volume options type scalarSemiImplicitSource
    Source: solidCpDegradation
    State: active
    - selecting all cells
    - selected 2304 cell(s) with volume 1.165146
*** Reading solid mesh thermophysical properties for region floor

    Adding to thermos

Selecting thermodynamics package 
{
    type            heSolidThermo;
    mixture         pureMixture;
    transport       constIso;
    thermo          hConst;
    equationOfState rhoConst;
    specie          specie;
    energy          sensibleEnthalpy;
}

    Adding to radiations

Selecting radiationModel none
    Adding fvOptions

Creating finite volume options from "system/fvOptions"

Region: air Courant Number mean: 1.463121 max: 7.008002
Region: solid Diffusion Number mean: 0.049888 max: 0.4051782
Region: floor Diffusion Number mean: 0.001769231 max: 0.01599999
deltaT = 3.08642
Region: air Courant Number mean: 0.9031614 max: 4.325927
Region: solid Diffusion Number mean: 0.03079506 max: 0.25011
Region: floor Diffusion Number mean: 0.001092118 max: 0.009876539
deltaT = 3.08642
Time = 3.08642

diagonal:  Solving for rho, Initial residual = 0, Final residual = 0, No Iterations 0
DILUPBiCGStab:  Solving for h, Initial residual = 1, Final residual = 8.083461e-07, No Iterations 18
Solving view factor equations for band : 0
Solving view factor equations for band : 1
Min/max T:300 309.9809

Solving for fluid region air
DICPCG:  Solving for p_rgh, Initial residual = 0.7375009, Final residual = 0.03256952, No Iterations 5
diagonal:  Solving for rho, Initial residual = 0, Final residual = 0, No Iterations 0
time step continuity errors (air): sum local = -8.479414, global = 2.013258, cumulative = 2.013258
DICPCG:  Solving for p_rgh, Initial residual = 0.08980379, Final residual = 7.754752e-08, No Iterations 38
diagonal:  Solving for rho, Initial residual = 0, Final residual = 0, No Iterations 0
time step continuity errors (air): sum local = 1.067908e-05, global = -8.565322e-08, cumulative = 2.013258
DILUPBiCGStab:  Solving for epsilon, Initial residual = 0.7634745, Final residual = 4.581566e-07, No Iterations 7
DILUPBiCGStab:  Solving for k, Initial residual = 1, Final residual = 8.417293e-07, No Iterations 7

Solving for solid region solid
DICPCG:  Solving for h, Initial residual = 1, Final residual = 6.040797e-09, No Iterations 3
Min/max T:349.648 349.8623

Solving for solid region floor
DICPCG:  Solving for h, Initial residual = 1, Final residual = 8.593177e-12, No Iterations 2
Min/max T:300 300.6465
ExecutionTime = 3.44 s  ClockTime = 4 s

Region: air Courant Number mean: 2.522805 max: 994.0056
Region: solid Diffusion Number mean: 0.03079506 max: 0.25011
Region: floor Diffusion Number mean: 0.001092118 max: 0.009876539
deltaT = 0.04657546
Time = 3.133

diagonal:  Solving for rho, Initial residual = 0, Final residual = 0, No Iterations 0
DILUPBiCGStab:  Solving for h, Initial residual = 0.06360258, Final residual = 2.254097e-07, No Iterations 3
Solving view factor equations for band : 0
Solving view factor equations for band : 1
Min/max T:298.6808 310.1302

Solving for fluid region air
DICPCG:  Solving for p_rgh, Initial residual = 0.08557988, Final residual = 0.00316796, No Iterations 17
diagonal:  Solving for rho, Initial residual = 0, Final residual = 0, No Iterations 0
time step continuity errors (air): sum local = 0.000606627, global = 7.950982e-05, cumulative = 2.013338
DICPCG:  Solving for p_rgh, Initial residual = 0.1054171, Final residual = 9.829488e-08, No Iterations 42
diagonal:  Solving for rho, Initial residual = 0, Final residual = 0, No Iterations 0
time step continuity errors (air): sum local = 1.104879e-07, global = 1.10117e-07, cumulative = 2.013338
DILUPBiCGStab:  Solving for epsilon, Initial residual = 0.3911596, Final residual = 2.539193e-07, No Iterations 4
DILUPBiCGStab:  Solving for k, Initial residual = 0.4315542, Final residual = 6.085385e-07, No Iterations 4

Solving for solid region solid
DICPCG:  Solving for h, Initial residual = 0.1387053, Final residual = 7.087763e-08, No Iterations 1
Min/max T:349.507 349.8588

Solving for solid region floor
DICPCG:  Solving for h, Initial residual = 0.006683394, Final residual = 4.605534e-12, No Iterations 1
Min/max T:300 300.6466
ExecutionTime = 3.54 s  ClockTime = 4 s

Region: air Courant Number mean: 0.02735824 max: 2.492447
Region: solid Diffusion Number mean: 0.0004647113 max: 0.003774272
Region: floor Diffusion Number mean: 1.648055e-05 max: 0.0001490414
deltaT = 0.05589055
Time = 3.18889

diagonal:  Solving for rho, Initial residual = 0, Final residual = 0, No Iterations 0
DILUPBiCGStab:  Solving for h, Initial residual = 0.5148192, Final residual = 6.871494e-07, No Iterations 6
Solving view factor equations for band : 0
Solving view factor equations for band : 1
Min/max T:298.6808 310.3086

Solving for fluid region air
DICPCG:  Solving for p_rgh, Initial residual = 0.5294015, Final residual = 0.02293594, No Iterations 7
diagonal:  Solving for rho, Initial residual = 0, Final residual = 0, No Iterations 0
time step continuity errors (air): sum local = 0.000578862, global = 0.0001939838, cumulative = 2.013532
DICPCG:  Solving for p_rgh, Initial residual = 0.1242659, Final residual = 9.524349e-08, No Iterations 44
diagonal:  Solving for rho, Initial residual = 0, Final residual = 0, No Iterations 0
time step continuity errors (air): sum local = 9.315673e-09, global = -1.095091e-09, cumulative = 2.013532
DILUPBiCGStab:  Solving for epsilon, Initial residual = 0.4220044, Final residual = 5.157888e-07, No Iterations 5
DILUPBiCGStab:  Solving for k, Initial residual = 0.4910554, Final residual = 3.568414e-07, No Iterations 6

Solving for solid region solid
DICPCG:  Solving for h, Initial residual = 0.1629674, Final residual = 1.196277e-07, No Iterations 1
Min/max T:349.5228 349.8562

Solving for solid region floor
DICPCG:  Solving for h, Initial residual = 0.007895116, Final residual = 7.833748e-12, No Iterations 1
Min/max T:300 300.6466
ExecutionTime = 3.63 s  ClockTime = 4 s

Region: air Courant Number mean: 0.03132461 max: 1.595531
Region: solid Diffusion Number mean: 0.0005576535 max: 0.004529127
Region: floor Diffusion Number mean: 1.977666e-05 max: 0.0001788497
deltaT = 0.06706414
Time = 3.25595

diagonal:  Solving for rho, Initial residual = 0, Final residual = 0, No Iterations 0
DILUPBiCGStab:  Solving for h, Initial residual = 0.03235565, Final residual = 4.891886e-07, No Iterations 5
Solving view factor equations for band : 0
Solving view factor equations for band : 1
Min/max T:299.8926 310.5214

Solving for fluid region air
DICPCG:  Solving for p_rgh, Initial residual = 0.2299803, Final residual = 0.0111566, No Iterations 10
diagonal:  Solving for rho, Initial residual = 0, Final residual = 0, No Iterations 0
time step continuity errors (air): sum local = 0.0002367071, global = -3.537138e-06, cumulative = 2.013528
DICPCG:  Solving for p_rgh, Initial residual = 0.1175987, Final residual = 8.235435e-08, No Iterations 41
diagonal:  Solving for rho, Initial residual = 0, Final residual = 0, No Iterations 0
time step continuity errors (air): sum local = 4.510016e-09, global = -3.811789e-09, cumulative = 2.013528
DILUPBiCGStab:  Solving for epsilon, Initial residual = 0.2258673, Final residual = 6.291839e-07, No Iterations 5
DILUPBiCGStab:  Solving for k, Initial residual = 0.2508573, Final residual = 1.876447e-07, No Iterations 6

Solving for solid region solid
DICPCG:  Solving for h, Initial residual = 0.1909706, Final residual = 2.013726e-07, No Iterations 1
Min/max T:349.5376 349.8532

Solving for solid region floor
DICPCG:  Solving for h, Initial residual = 0.009298917, Final residual = 1.328345e-11, No Iterations 1
Min/max T:300 300.6467
ExecutionTime = 3.72 s  ClockTime = 4 s

Region: air Courant Number mean: 0.03589292 max: 1.380794
Region: solid Diffusion Number mean: 0.0006691391 max: 0.005434585
Region: floor Diffusion Number mean: 2.373039e-05 max: 0.0002146051
deltaT = 0.08047044
Time = 3.33642

diagonal:  Solving for rho, Initial residual = 0, Final residual = 0, No Iterations 0
DILUPBiCGStab:  Solving for h, Initial residual = 0.01497098, Final residual = 8.976546e-07, No Iterations 4
Solving view factor equations for band : 0
Solving view factor equations for band : 1
Min/max T:299.9191 310.7751

Solving for fluid region air
DICPCG:  Solving for p_rgh, Initial residual = 0.3087854, Final residual = 0.009917131, No Iterations 3
diagonal:  Solving for rho, Initial residual = 0, Final residual = 0, No Iterations 0
time step continuity errors (air): sum local = 6.703565e-05, global = 1.104742e-05, cumulative = 2.013539
DICPCG:  Solving for p_rgh, Initial residual = 0.1324209, Final residual = 8.395307e-08, No Iterations 43
diagonal:  Solving for rho, Initial residual = 0, Final residual = 0, No Iterations 0
time step continuity errors (air): sum local = 1.008128e-09, global = -4.555179e-10, cumulative = 2.013539
DILUPBiCGStab:  Solving for epsilon, Initial residual = 0.1072104, Final residual = 7.11728e-07, No Iterations 5
DILUPBiCGStab:  Solving for k, Initial residual = 0.1376427, Final residual = 6.922431e-07, No Iterations 6

Solving for solid region solid
DICPCG:  Solving for h, Initial residual = 0.2231681, Final residual = 3.379695e-07, No Iterations 1
Min/max T:349.5521 349.8496

Solving for solid region floor
DICPCG:  Solving for h, Initial residual = 0.0109164, Final residual = 2.244944e-11, No Iterations 1
Min/max T:300 300.6468
ExecutionTime = 3.81 s  ClockTime = 4 s

Region: air Courant Number mean: 0.04170014 max: 1.462553
Region: solid Diffusion Number mean: 0.0008029019 max: 0.006520974
Region: floor Diffusion Number mean: 2.847416e-05 max: 0.0002575053
deltaT = 0.09657079
Time = 3.43299

diagonal:  Solving for rho, Initial residual = 0, Final residual = 0, No Iterations 0
DILUPBiCGStab:  Solving for h, Initial residual = 0.005228513, Final residual = 3.566492e-07, No Iterations 4
Solving view factor equations for band : 0
Solving view factor equations for band : 1
Min/max T:299.8917 311.0772

Solving for fluid region air
DICPCG:  Solving for p_rgh, Initial residual = 0.2159786, Final residual = 0.005392941, No Iterations 3
diagonal:  Solving for rho, Initial residual = 0, Final residual = 0, No Iterations 0
time step continuity errors (air): sum local = 3.013178e-05, global = -6.586495e-06, cumulative = 2.013533
DICPCG:  Solving for p_rgh, Initial residual = 0.1211408, Final residual = 7.411852e-08, No Iterations 43
diagonal:  Solving for rho, Initial residual = 0, Final residual = 0, No Iterations 0
time step continuity errors (air): sum local = 6.417711e-10, global = -3.006849e-10, cumulative = 2.013533
DILUPBiCGStab:  Solving for epsilon, Initial residual = 0.07053413, Final residual = 2.200281e-07, No Iterations 5
DILUPBiCGStab:  Solving for k, Initial residual = 0.1019742, Final residual = 4.067508e-07, No Iterations 5

Solving for solid region solid
DICPCG:  Solving for h, Initial residual = 0.2600734, Final residual = 5.657415e-07, No Iterations 1
Min/max T:349.5651 349.8453

Solving for solid region floor
DICPCG:  Solving for h, Initial residual = 0.01276934, Final residual = 3.781455e-11, No Iterations 1
Min/max T:300 300.6469
ExecutionTime = 3.9 s  ClockTime = 4 s

Region: air Courant Number mean: 0.04877719 max: 1.598727
Region: solid Diffusion Number mean: 0.0009635447 max: 0.007825676
Region: floor Diffusion Number mean: 3.417121e-05 max: 0.0003090264
deltaT = 0.1158849
Time = 3.54888

diagonal:  Solving for rho, Initial residual = 0, Final residual = 0, No Iterations 0
DILUPBiCGStab:  Solving for h, Initial residual = 0.004707049, Final residual = 2.09418e-07, No Iterations 4
Solving view factor equations for band : 0
Solving view factor equations for band : 1
Min/max T:299.8721 311.4363

Solving for fluid region air
DICPCG:  Solving for p_rgh, Initial residual = 0.1956459, Final residual = 0.005363294, No Iterations 3
diagonal:  Solving for rho, Initial residual = 0, Final residual = 0, No Iterations 0
time step continuity errors (air): sum local = 2.334121e-05, global = -9.028067e-06, cumulative = 2.013524
DICPCG:  Solving for p_rgh, Initial residual = 0.1346918, Final residual = 9.770052e-08, No Iterations 42
diagonal:  Solving for rho, Initial residual = 0, Final residual = 0, No Iterations 0
time step continuity errors (air): sum local = 5.009764e-10, global = -2.072521e-10, cumulative = 2.013524
DILUPBiCGStab:  Solving for epsilon, Initial residual = 0.06962044, Final residual = 7.838551e-07, No Iterations 4
DILUPBiCGStab:  Solving for k, Initial residual = 0.08973673, Final residual = 8.073755e-07, No Iterations 5

Solving for solid region solid
DICPCG:  Solving for h, Initial residual = 0.3021362, Final residual = 9.437916e-07, No Iterations 1
Min/max T:349.571 349.8401

Solving for solid region floor
DICPCG:  Solving for h, Initial residual = 0.01487239, Final residual = 6.341161e-11, No Iterations 1
Min/max T:300 300.647
ExecutionTime = 3.99 s  ClockTime = 4 s

Region: air Courant Number mean: 0.05720846 max: 1.681059
Region: solid Diffusion Number mean: 0.001156254 max: 0.009390811
Region: floor Diffusion Number mean: 4.100545e-05 max: 0.0003708317
deltaT = 0.1390619
Time = 3.68794

diagonal:  Solving for rho, Initial residual = 0, Final residual = 0, No Iterations 0
DILUPBiCGStab:  Solving for h, Initial residual = 0.004755649, Final residual = 1.228327e-07, No Iterations 4
Solving view factor equations for band : 0
Solving view factor equations for band : 1
Min/max T:299.8594 311.8623

Solving for fluid region air
DICPCG:  Solving for p_rgh, Initial residual = 0.1884579, Final residual = 0.005191904, No Iterations 3
diagonal:  Solving for rho, Initial residual = 0, Final residual = 0, No Iterations 0
time step continuity errors (air): sum local = 1.823094e-05, global = -2.456451e-06, cumulative = 2.013521
DICPCG:  Solving for p_rgh, Initial residual = 0.1442892, Final residual = 8.29818e-08, No Iterations 43
diagonal:  Solving for rho, Initial residual = 0, Final residual = 0, No Iterations 0
time step continuity errors (air): sum local = 3.316106e-10, global = -7.199762e-11, cumulative = 2.013521
DILUPBiCGStab:  Solving for epsilon, Initial residual = 0.0778635, Final residual = 8.111142e-07, No Iterations 4
DILUPBiCGStab:  Solving for k, Initial residual = 0.0864788, Final residual = 6.246554e-07, No Iterations 5

Solving for solid region solid
DICPCG:  Solving for h, Initial residual = 0.349868, Final residual = 5.227562e-12, No Iterations 2
Min/max T:349.5733 349.8338

Solving for solid region floor
DICPCG:  Solving for h, Initial residual = 0.01723888, Final residual = 1.058234e-10, No Iterations 1
Min/max T:300 300.6471
ExecutionTime = 4.08 s  ClockTime = 4 s

Region: air Courant Number mean: 0.06721458 max: 1.72514
Region: solid Diffusion Number mean: 0.001387504 max: 0.01126897
Region: floor Diffusion Number mean: 4.920654e-05 max: 0.000444998
deltaT = 0.1668837
Time = 3.85482

diagonal:  Solving for rho, Initial residual = 0, Final residual = 0, No Iterations 0
DILUPBiCGStab:  Solving for h, Initial residual = 0.004873735, Final residual = 1.261113e-07, No Iterations 4
Solving view factor equations for band : 0
Solving view factor equations for band : 1
Min/max T:299.8523 312.3666

Solving for fluid region air
DICPCG:  Solving for p_rgh, Initial residual = 0.1772975, Final residual = 0.00525396, No Iterations 3
diagonal:  Solving for rho, Initial residual = 0, Final residual = 0, No Iterations 0
time step continuity errors (air): sum local = 1.691244e-05, global = -4.095441e-06, cumulative = 2.013517
DICPCG:  Solving for p_rgh, Initial residual = 0.1371095, Final residual = 7.634472e-08, No Iterations 43
diagonal:  Solving for rho, Initial residual = 0, Final residual = 0, No Iterations 0
time step continuity errors (air): sum local = 2.640432e-10, global = -4.653914e-11, cumulative = 2.013517
DILUPBiCGStab:  Solving for epsilon, Initial residual = 0.08834834, Final residual = 7.314049e-07, No Iterations 4
DILUPBiCGStab:  Solving for k, Initial residual = 0.08612282, Final residual = 4.503933e-07, No Iterations 5

Solving for solid region solid
DICPCG:  Solving for h, Initial residual = 0.4037655, Final residual = 1.242869e-11, No Iterations 2
Min/max T:349.5702 349.8263

Solving for solid region floor
DICPCG:  Solving for h, Initial residual = 0.01987625, Final residual = 1.756807e-10, No Iterations 1
Min/max T:300 300.6473
ExecutionTime = 4.16 s  ClockTime = 5 s

Region: air Courant Number mean: 0.07903976 max: 1.733128
Region: solid Diffusion Number mean: 0.001665098 max: 0.01352353
Region: floor Diffusion Number mean: 5.905115e-05 max: 0.0005340276
deltaT = 0.20022
Time = 4.05504

diagonal:  Solving for rho, Initial residual = 0, Final residual = 0, No Iterations 0
DILUPBiCGStab:  Solving for h, Initial residual = 0.005070762, Final residual = 7.369496e-07, No Iterations 3
Solving view factor equations for band : 0
Solving view factor equations for band : 1
Min/max T:299.8487 312.9619

Solving for fluid region air
DICPCG:  Solving for p_rgh, Initial residual = 0.1690992, Final residual = 0.005433894, No Iterations 3
diagonal:  Solving for rho, Initial residual = 0, Final residual = 0, No Iterations 0
time step continuity errors (air): sum local = 1.694243e-05, global = -2.772557e-06, cumulative = 2.013514
DICPCG:  Solving for p_rgh, Initial residual = 0.1150696, Final residual = 8.179246e-08, No Iterations 43
diagonal:  Solving for rho, Initial residual = 0, Final residual = 0, No Iterations 0
time step continuity errors (air): sum local = 2.716803e-10, global = -2.372967e-11, cumulative = 2.013514
DILUPBiCGStab:  Solving for epsilon, Initial residual = 0.09889064, Final residual = 6.020938e-07, No Iterations 4
DILUPBiCGStab:  Solving for k, Initial residual = 0.08758257, Final residual = 3.255477e-07, No Iterations 5

Solving for solid region solid
DICPCG:  Solving for h, Initial residual = 0.4641167, Final residual = 2.938317e-11, No Iterations 2
Min/max T:349.5649 349.8173

Solving for solid region floor
DICPCG:  Solving for h, Initial residual = 0.0227761, Final residual = 2.896966e-10, No Iterations 1
Min/max T:300 300.6475
ExecutionTime = 4.24 s  ClockTime = 5 s

Region: air Courant Number mean: 0.0929542 max: 1.720295
Region: solid Diffusion Number mean: 0.001997715 max: 0.01622496
Region: floor Diffusion Number mean: 7.084709e-05 max: 0.0006407038
deltaT = 0.2402834
Time = 4.29533

diagonal:  Solving for rho, Initial residual = 0, Final residual = 0, No Iterations 0
DILUPBiCGStab:  Solving for h, Initial residual = 0.005286735, Final residual = 5.657105e-07, No Iterations 3
Solving view factor equations for band : 0
Solving view factor equations for band : 1
Min/max T:299.8463 313.6624

Solving for fluid region air
DICPCG:  Solving for p_rgh, Initial residual = 0.1442966, Final residual = 0.004992454, No Iterations 3
diagonal:  Solving for rho, Initial residual = 0, Final residual = 0, No Iterations 0
time step continuity errors (air): sum local = 1.768946e-05, global = -2.835497e-06, cumulative = 2.013511
DICPCG:  Solving for p_rgh, Initial residual = 0.08945252, Final residual = 6.994497e-08, No Iterations 43
diagonal:  Solving for rho, Initial residual = 0, Final residual = 0, No Iterations 0
time step continuity errors (air): sum local = 2.624206e-10, global = -2.217297e-11, cumulative = 2.013511
DILUPBiCGStab:  Solving for epsilon, Initial residual = 0.1085884, Final residual = 4.82489e-07, No Iterations 4
DILUPBiCGStab:  Solving for k, Initial residual = 0.09041671, Final residual = 2.334392e-07, No Iterations 5

Solving for solid region solid
DICPCG:  Solving for h, Initial residual = 0.5314129, Final residual = 6.921809e-11, No Iterations 2
Min/max T:349.5571 349.8065

Solving for solid region floor
DICPCG:  Solving for h, Initial residual = 0.02593866, Final residual = 4.750161e-10, No Iterations 1
Min/max T:300 300.6477
ExecutionTime = 4.33 s  ClockTime = 5 s

Region: air Courant Number mean: 0.1094194 max: 1.780455
Region: solid Diffusion Number mean: 0.002397452 max: 0.01947152
Region: floor Diffusion Number mean: 8.502337e-05 max: 0.0007689066
deltaT = 0.288368
Time = 4.58369

diagonal:  Solving for rho, Initial residual = 0, Final residual = 0, No Iterations 0
DILUPBiCGStab:  Solving for h, Initial residual = 0.00550077, Final residual = 5.591848e-07, No Iterations 3
Solving view factor equations for band : 0
Solving view factor equations for band : 1
Min/max T:299.8432 314.4836

Solving for fluid region air
DICPCG:  Solving for p_rgh, Initial residual = 0.1167383, Final residual = 0.00464791, No Iterations 3
diagonal:  Solving for rho, Initial residual = 0, Final residual = 0, No Iterations 0
time step continuity errors (air): sum local = 1.998657e-05, global = -2.570816e-06, cumulative = 2.013509
DICPCG:  Solving for p_rgh, Initial residual = 0.06874834, Final residual = 6.689928e-08, No Iterations 43
diagonal:  Solving for rho, Initial residual = 0, Final residual = 0, No Iterations 0
time step continuity errors (air): sum local = 2.97885e-10, global = -2.603605e-11, cumulative = 2.013509
DILUPBiCGStab:  Solving for epsilon, Initial residual = 0.1166762, Final residual = 3.95112e-07, No Iterations 4
DILUPBiCGStab:  Solving for k, Initial residual = 0.09322698, Final residual = 1.997499e-07, No Iterations 5

Solving for solid region solid
DICPCG:  Solving for h, Initial residual = 0.5999216, Final residual = 1.606252e-10, No Iterations 2
Min/max T:349.5463 349.7936

Solving for solid region floor
DICPCG:  Solving for h, Initial residual = 0.02933642, Final residual = 7.73484e-10, No Iterations 1
Min/max T:300 300.648
ExecutionTime = 4.41 s  ClockTime = 5 s

Region: air Courant Number mean: 0.1288816 max: 1.821131
Region: solid Diffusion Number mean: 0.002877221 max: 0.02336809
Region: floor Diffusion Number mean: 0.0001020379 max: 0.0009227774
deltaT = 0.3459611
Time = 4.92965

diagonal:  Solving for rho, Initial residual = 0, Final residual = 0, No Iterations 0
DILUPBiCGStab:  Solving for h, Initial residual = 0.005716394, Final residual = 4.320519e-07, No Iterations 3
Solving view factor equations for band : 0
Solving view factor equations for band : 1
Min/max T:299.8378 315.4415

Solving for fluid region air
DICPCG:  Solving for p_rgh, Initial residual = 0.09687978, Final residual = 0.004417435, No Iterations 3
diagonal:  Solving for rho, Initial residual = 0, Final residual = 0, No Iterations 0
time step continuity errors (air): sum local = 2.355971e-05, global = -3.199459e-06, cumulative = 2.013506
DICPCG:  Solving for p_rgh, Initial residual = 0.05474607, Final residual = 7.378701e-08, No Iterations 43
diagonal:  Solving for rho, Initial residual = 0, Final residual = 0, No Iterations 0
time step continuity errors (air): sum local = 4.00134e-10, global = -3.328627e-11, cumulative = 2.013506
DILUPBiCGStab:  Solving for epsilon, Initial residual = 0.1230113, Final residual = 3.389175e-07, No Iterations 4
DILUPBiCGStab:  Solving for k, Initial residual = 0.09592608, Final residual = 1.898474e-07, No Iterations 5

Solving for solid region solid
DICPCG:  Solving for h, Initial residual = 0.6329183, Final residual = 3.47491e-10, No Iterations 2
Min/max T:349.532 349.778

Solving for solid region floor
DICPCG:  Solving for h, Initial residual = 0.03292534, Final residual = 1.248931e-09, No Iterations 1
Min/max T:300 300.6483
ExecutionTime = 4.49 s  ClockTime = 5 s

Region: air Courant Number mean: 0.1518819 max: 1.840084
Region: solid Diffusion Number mean: 0.003451861 max: 0.02803518
Region: floor Diffusion Number mean: 0.000122417 max: 0.001107075
deltaT = 0.4149793
Time = 5.34463

diagonal:  Solving for rho, Initial residual = 0, Final residual = 0, No Iterations 0
DILUPBiCGStab:  Solving for h, Initial residual = 0.005943153, Final residual = 8.870238e-07, No Iterations 3
Solving view factor equations for band : 0
Solving view factor equations for band : 1
Min/max T:299.8293 316.5525

Solving for fluid region air
DICPCG:  Solving for p_rgh, Initial residual = 0.08206079, Final residual = 0.002859037, No Iterations 4
diagonal:  Solving for rho, Initial residual = 0, Final residual = 0, No Iterations 0
time step continuity errors (air): sum local = 1.905087e-05, global = -1.607591e-06, cumulative = 2.013504
DICPCG:  Solving for p_rgh, Initial residual = 0.04571258, Final residual = 7.602545e-08, No Iterations 43
diagonal:  Solving for rho, Initial residual = 0, Final residual = 0, No Iterations 0
time step continuity errors (air): sum local = 5.136477e-10, global = -3.729185e-11, cumulative = 2.013504
DILUPBiCGStab:  Solving for epsilon, Initial residual = 0.1283851, Final residual = 3.149829e-07, No Iterations 4
DILUPBiCGStab:  Solving for k, Initial residual = 0.0992641, Final residual = 2.038992e-07, No Iterations 5

Solving for solid region solid
DICPCG:  Solving for h, Initial residual = 0.6632921, Final residual = 7.451835e-10, No Iterations 2
Min/max T:349.5135 349.7594

Solving for solid region floor
DICPCG:  Solving for h, Initial residual = 0.03666483, Final residual = 1.999954e-09, No Iterations 1
Min/max T:300 300.6487
ExecutionTime = 4.58 s  ClockTime = 5 s

Region: air Courant Number mean: 0.1791178 max: 1.886295
Region: solid Diffusion Number mean: 0.004140498 max: 0.03362812
Region: floor Diffusion Number mean: 0.0001468389 max: 0.001327933
deltaT = 0.4981424
Time = 5.84278

diagonal:  Solving for rho, Initial residual = 0, Final residual = 0, No Iterations 0
DILUPBiCGStab:  Solving for h, Initial residual = 0.00617312, Final residual = 2.479377e-07, No Iterations 4
Solving view factor equations for band : 0
Solving view factor equations for band : 1
Min/max T:299.8177 317.8334

Solving for fluid region air
DICPCG:  Solving for p_rgh, Initial residual = 0.06718606, Final residual = 0.00296071, No Iterations 4
diagonal:  Solving for rho, Initial residual = 0, Final residual = 0, No Iterations 0
time step continuity errors (air): sum local = 2.448168e-05, global = -2.630436e-06, cumulative = 2.013501
DICPCG:  Solving for p_rgh, Initial residual = 0.03949885, Final residual = 7.899943e-08, No Iterations 43
diagonal:  Solving for rho, Initial residual = 0, Final residual = 0, No Iterations 0
time step continuity errors (air): sum local = 6.619386e-10, global = -5.772261e-11, cumulative = 2.013501
DILUPBiCGStab:  Solving for epsilon, Initial residual = 0.1318554, Final residual = 3.295608e-07, No Iterations 4
DILUPBiCGStab:  Solving for k, Initial residual = 0.1019247, Final residual = 2.616706e-07, No Iterations 5

Solving for solid region solid
DICPCG:  Solving for h, Initial residual = 0.6913019, Final residual = 1.591252e-09, No Iterations 2
Min/max T:349.4902 349.737

Solving for solid region floor
DICPCG:  Solving for h, Initial residual = 0.04053985, Final residual = 3.184355e-09, No Iterations 1
Min/max T:300 300.6492
ExecutionTime = 4.66 s  ClockTime = 5 s

Region: air Courant Number mean: 0.2116148 max: 1.921848
Region: solid Diffusion Number mean: 0.004970265 max: 0.04036728
Region: floor Diffusion Number mean: 0.0001762658 max: 0.001594055
deltaT = 0.5975299
Time = 6.44031

diagonal:  Solving for rho, Initial residual = 0, Final residual = 0, No Iterations 0
DILUPBiCGStab:  Solving for h, Initial residual = 0.006417294, Final residual = 6.045688e-07, No Iterations 4
Solving view factor equations for band : 0
Solving view factor equations for band : 1
Min/max T:299.8038 319.2977

Solving for fluid region air
DICPCG:  Solving for p_rgh, Initial residual = 0.05457437, Final residual = 0.002139897, No Iterations 5
diagonal:  Solving for rho, Initial residual = 0, Final residual = 0, No Iterations 0
time step continuity errors (air): sum local = 2.189375e-05, global = -2.456973e-06, cumulative = 2.013499
DICPCG:  Solving for p_rgh, Initial residual = 0.03430649, Final residual = 9.196654e-08, No Iterations 42
diagonal:  Solving for rho, Initial residual = 0, Final residual = 0, No Iterations 0
time step continuity errors (air): sum local = 9.545152e-10, global = -2.846449e-11, cumulative = 2.013499
DILUPBiCGStab:  Solving for epsilon, Initial residual = 0.1345124, Final residual = 4.027991e-07, No Iterations 4
DILUPBiCGStab:  Solving for k, Initial residual = 0.1050405, Final residual = 3.954355e-07, No Iterations 5

Solving for solid region solid
DICPCG:  Solving for h, Initial residual = 0.7163881, Final residual = 3.361647e-09, No Iterations 2
Min/max T:349.4613 349.7102

Solving for solid region floor
DICPCG:  Solving for h, Initial residual = 0.04443691, Final residual = 5.018253e-09, No Iterations 1
Min/max T:300 300.6498
ExecutionTime = 4.75 s  ClockTime = 5 s

Region: air Courant Number mean: 0.2501183 max: 1.994656
Region: solid Diffusion Number mean: 0.005961914 max: 0.04842122
Region: floor Diffusion Number mean: 0.0002114337 max: 0.001912095
deltaT = 0.7173833
Time = 7.15769

diagonal:  Solving for rho, Initial residual = 0, Final residual = 0, No Iterations 0
DILUPBiCGStab:  Solving for h, Initial residual = 0.006852068, Final residual = 8.751836e-07, No Iterations 4
Solving view factor equations for band : 0
Solving view factor equations for band : 1
Min/max T:299.7886 320.9574

Solving for fluid region air
DICPCG:  Solving for p_rgh, Initial residual = 0.04621688, Final residual = 0.00190117, No Iterations 6
diagonal:  Solving for rho, Initial residual = 0, Final residual = 0, No Iterations 0
time step continuity errors (air): sum local = 2.397492e-05, global = -3.612037e-06, cumulative = 2.013495
DICPCG:  Solving for p_rgh, Initial residual = 0.03108704, Final residual = 6.559565e-08, No Iterations 43
diagonal:  Solving for rho, Initial residual = 0, Final residual = 0, No Iterations 0
time step continuity errors (air): sum local = 8.459622e-10, global = -1.161884e-11, cumulative = 2.013495
DILUPBiCGStab:  Solving for epsilon, Initial residual = 0.1364298, Final residual = 5.830808e-07, No Iterations 4
DILUPBiCGStab:  Solving for k, Initial residual = 0.1094938, Final residual = 7.319262e-07, No Iterations 5

Solving for solid region solid
DICPCG:  Solving for h, Initial residual = 0.7387438, Final residual = 7.072528e-09, No Iterations 2
Min/max T:349.4259 349.678

Solving for solid region floor
DICPCG:  Solving for h, Initial residual = 0.04837014, Final residual = 7.866022e-09, No Iterations 1
Min/max T:300 300.6505
ExecutionTime = 4.84 s  ClockTime = 5 s

Region: air Courant Number mean: 0.2962675 max: 2.338101
Region: solid Diffusion Number mean: 0.007157763 max: 0.05813361
Region: floor Diffusion Number mean: 0.0002538433 max: 0.002295626
deltaT = 0.8616124
Time = 8.0193

diagonal:  Solving for rho, Initial residual = 0, Final residual = 0, No Iterations 0
DILUPBiCGStab:  Solving for h, Initial residual = 0.007351031, Final residual = 3.278417e-07, No Iterations 5
Solving view factor equations for band : 0
Solving view factor equations for band : 1
Min/max T:299.7729 322.8183

Solving for fluid region air
DICPCG:  Solving for p_rgh, Initial residual = 0.03996193, Final residual = 0.001575439, No Iterations 7
diagonal:  Solving for rho, Initial residual = 0, Final residual = 0, No Iterations 0
time step continuity errors (air): sum local = 2.457163e-05, global = -3.883338e-06, cumulative = 2.013492
DICPCG:  Solving for p_rgh, Initial residual = 0.02873191, Final residual = 6.958399e-08, No Iterations 43
diagonal:  Solving for rho, Initial residual = 0, Final residual = 0, No Iterations 0
time step continuity errors (air): sum local = 1.116687e-09, global = 5.464961e-12, cumulative = 2.013492
DILUPBiCGStab:  Solving for epsilon, Initial residual = 0.1362546, Final residual = 2.893197e-07, No Iterations 5
DILUPBiCGStab:  Solving for k, Initial residual = 0.1146214, Final residual = 7.940854e-07, No Iterations 5

Solving for solid region solid
DICPCG:  Solving for h, Initial residual = 0.7581908, Final residual = 1.478038e-08, No Iterations 2
Min/max T:349.3831 349.6393

Solving for solid region floor
DICPCG:  Solving for h, Initial residual = 0.05226713, Final residual = 1.224693e-08, No Iterations 1
Min/max T:300 300.6513
ExecutionTime = 4.92 s  ClockTime = 5 s

Region: air Courant Number mean: 0.3514936 max: 2.743891
Region: solid Diffusion Number mean: 0.008596824 max: 0.06982131
Region: floor Diffusion Number mean: 0.0003048783 max: 0.002757159
deltaT = 1.033573
Time = 9.05287

diagonal:  Solving for rho, Initial residual = 0, Final residual = 0, No Iterations 0
DILUPBiCGStab:  Solving for h, Initial residual = 0.007873474, Final residual = 4.363452e-07, No Iterations 5
Solving view factor equations for band : 0
Solving view factor equations for band : 1
Min/max T:299.7566 324.8743

Solving for fluid region air
DICPCG:  Solving for p_rgh, Initial residual = 0.03592063, Final residual = 0.00164717, No Iterations 7
diagonal:  Solving for rho, Initial residual = 0, Final residual = 0, No Iterations 0
time step continuity errors (air): sum local = 3.206678e-05, global = -4.29771e-06, cumulative = 2.013487
DICPCG:  Solving for p_rgh, Initial residual = 0.0263769, Final residual = 7.274951e-08, No Iterations 43
diagonal:  Solving for rho, Initial residual = 0, Final residual = 0, No Iterations 0
time step continuity errors (air): sum local = 1.461356e-09, global = -8.870021e-12, cumulative = 2.013487
DILUPBiCGStab:  Solving for epsilon, Initial residual = 0.1325263, Final residual = 6.196254e-07, No Iterations 5
DILUPBiCGStab:  Solving for k, Initial residual = 0.1188737, Final residual = 9.797144e-07, No Iterations 6

Solving for solid region solid
DICPCG:  Solving for h, Initial residual = 0.7745039, Final residual = 3.046394e-08, No Iterations 2
Min/max T:349.3319 349.593

Solving for solid region floor
DICPCG:  Solving for h, Initial residual = 0.05599585, Final residual = 1.885437e-08, No Iterations 1
Min/max T:300 300.6524
ExecutionTime = 5.01 s  ClockTime = 5 s

Region: air Courant Number mean: 0.4170952 max: 3.221781
Region: solid Diffusion Number mean: 0.01031258 max: 0.08375624
Region: floor Diffusion Number mean: 0.0003657258 max: 0.003307432
deltaT = 1.239765
Time = 10.2926

diagonal:  Solving for rho, Initial residual = 0, Final residual = 0, No Iterations 0
DILUPBiCGStab:  Solving for h, Initial residual = 0.008347575, Final residual = 6.832694e-07, No Iterations 6
Solving view factor equations for band : 0
Solving view factor equations for band : 1
Min/max T:299.7394 327.1099

Solving for fluid region air
DICPCG:  Solving for p_rgh, Initial residual = 0.03556349, Final residual = 0.001620209, No Iterations 7
diagonal:  Solving for rho, Initial residual = 0, Final residual = 0, No Iterations 0
time step continuity errors (air): sum local = 3.989466e-05, global = -3.445205e-06, cumulative = 2.013484
DICPCG:  Solving for p_rgh, Initial residual = 0.02436827, Final residual = 8.015242e-08, No Iterations 43
diagonal:  Solving for rho, Initial residual = 0, Final residual = 0, No Iterations 0
time step continuity errors (air): sum local = 2.041602e-09, global = -3.767334e-11, cumulative = 2.013484
DILUPBiCGStab:  Solving for epsilon, Initial residual = 0.1245716, Final residual = 8.572085e-07, No Iterations 6
DILUPBiCGStab:  Solving for k, Initial residual = 0.1224868, Final residual = 9.370017e-07, No Iterations 7

Solving for solid region solid
DICPCG:  Solving for h, Initial residual = 0.788058, Final residual = 6.219671e-08, No Iterations 2
Min/max T:349.2707 349.5374

Solving for solid region floor
DICPCG:  Solving for h, Initial residual = 0.05957903, Final residual = 2.881563e-08, No Iterations 1
Min/max T:300.0001 300.6536
ExecutionTime = 5.1 s  ClockTime = 6 s

Region: air Courant Number mean: 0.4955435 max: 3.795918
Region: solid Diffusion Number mean: 0.01236988 max: 0.1004652
Region: floor Diffusion Number mean: 0.0004386863 max: 0.003967248
deltaT = 1.488472
Time = 11.7811

diagonal:  Solving for rho, Initial residual = 0, Final residual = 0, No Iterations 0
DILUPBiCGStab:  Solving for h, Initial residual = 0.008711607, Final residual = 7.967958e-07, No Iterations 7
Solving view factor equations for band : 0
Solving view factor equations for band : 1
Min/max T:299.7212 329.4974

Solving for fluid region air
DICPCG:  Solving for p_rgh, Initial residual = 0.03415312, Final residual = 0.00152932, No Iterations 7
diagonal:  Solving for rho, Initial residual = 0, Final residual = 0, No Iterations 0
time step continuity errors (air): sum local = 4.809305e-05, global = -2.678356e-06, cumulative = 2.013481
DICPCG:  Solving for p_rgh, Initial residual = 0.02253035, Final residual = 8.430908e-08, No Iterations 43
diagonal:  Solving for rho, Initial residual = 0, Final residual = 0, No Iterations 0
time step continuity errors (air): sum local = 2.743414e-09, global = -8.128711e-11, cumulative = 2.013481
DILUPBiCGStab:  Solving for epsilon, Initial residual = 0.1083537, Final residual = 6.922278e-07, No Iterations 7
DILUPBiCGStab:  Solving for k, Initial residual = 0.1232856, Final residual = 6.855226e-07, No Iterations 8

Solving for solid region solid
DICPCG:  Solving for h, Initial residual = 0.7992666, Final residual = 1.26242e-07, No Iterations 2
Min/max T:349.1978 349.4706

Solving for solid region floor
DICPCG:  Solving for h, Initial residual = 0.06305091, Final residual = 4.3869e-08, No Iterations 1
Min/max T:300.0001 300.655
ExecutionTime = 5.19 s  ClockTime = 6 s

Region: air Courant Number mean: 0.5900324 max: 4.493019
Region: solid Diffusion Number mean: 0.01485138 max: 0.1206193
Region: floor Diffusion Number mean: 0.0005266902 max: 0.004763109
deltaT = 1.788348
Time = 13.5695

diagonal:  Solving for rho, Initial residual = 0, Final residual = 0, No Iterations 0
DILUPBiCGStab:  Solving for h, Initial residual = 0.009010525, Final residual = 7.327452e-07, No Iterations 8
Solving view factor equations for band : 0
Solving view factor equations for band : 1
Min/max T:299.7021 331.9921

Solving for fluid region air
DICPCG:  Solving for p_rgh, Initial residual = 0.03323309, Final residual = 0.001491157, No Iterations 7
diagonal:  Solving for rho, Initial residual = 0, Final residual = 0, No Iterations 0
time step continuity errors (air): sum local = 6.107196e-05, global = -3.694075e-06, cumulative = 2.013477
DICPCG:  Solving for p_rgh, Initial residual = 0.02079769, Final residual = 7.851837e-08, No Iterations 43
diagonal:  Solving for rho, Initial residual = 0, Final residual = 0, No Iterations 0
time step continuity errors (air): sum local = 3.324626e-09, global = -1.308998e-10, cumulative = 2.013477
DILUPBiCGStab:  Solving for epsilon, Initial residual = 0.0897956, Final residual = 6.39212e-07, No Iterations 8
DILUPBiCGStab:  Solving for k, Initial residual = 0.1213299, Final residual = 8.168861e-07, No Iterations 9

Solving for solid region solid
DICPCG:  Solving for h, Initial residual = 0.8083547, Final residual = 2.543569e-07, No Iterations 2
Min/max T:349.1108 349.3905

Solving for solid region floor
DICPCG:  Solving for h, Initial residual = 0.0663836, Final residual = 6.651078e-08, No Iterations 1
Min/max T:300.0001 300.6567
ExecutionTime = 5.3 s  ClockTime = 6 s

Region: air Courant Number mean: 0.703956 max: 5.334978
Region: solid Diffusion Number mean: 0.01784342 max: 0.1449199
Region: floor Diffusion Number mean: 0.0006328 max: 0.00572271
deltaT = 2.142866
Time = 15.7123

diagonal:  Solving for rho, Initial residual = 0, Final residual = 0, No Iterations 0
DILUPBiCGStab:  Solving for h, Initial residual = 0.00929179, Final residual = 9.459749e-07, No Iterations 8
Solving view factor equations for band : 0
Solving view factor equations for band : 1
Min/max T:299.6826 334.5239

Solving for fluid region air
DICPCG:  Solving for p_rgh, Initial residual = 0.0316136, Final residual = 0.001564246, No Iterations 6
diagonal:  Solving for rho, Initial residual = 0, Final residual = 0, No Iterations 0
time step continuity errors (air): sum local = 8.270024e-05, global = -1.919905e-06, cumulative = 2.013475
DICPCG:  Solving for p_rgh, Initial residual = 0.01899797, Final residual = 7.194016e-08, No Iterations 43
diagonal:  Solving for rho, Initial residual = 0, Final residual = 0, No Iterations 0
time step continuity errors (air): sum local = 3.929672e-09, global = -1.122432e-10, cumulative = 2.013475
DILUPBiCGStab:  Solving for epsilon, Initial residual = 0.06674708, Final residual = 9.9394e-07, No Iterations 9
DILUPBiCGStab:  Solving for k, Initial residual = 0.1129263, Final residual = 8.473635e-07, No Iterations 10

Solving for solid region solid
DICPCG:  Solving for h, Initial residual = 0.8152335, Final residual = 5.01603e-07, No Iterations 2
Min/max T:349.0071 349.2945

Solving for solid region floor
DICPCG:  Solving for h, Initial residual = 0.06934521, Final residual = 9.949359e-08, No Iterations 1
Min/max T:300.0001 300.6588
ExecutionTime = 5.39 s  ClockTime = 6 s

Region: air Courant Number mean: 0.8383307 max: 6.325029
Region: solid Diffusion Number mean: 0.02138066 max: 0.1736485
Region: floor Diffusion Number mean: 0.0007582449 max: 0.006857168
deltaT = 2.575998
Time = 18.2883

diagonal:  Solving for rho, Initial residual = 0, Final residual = 0, No Iterations 0
DILUPBiCGStab:  Solving for h, Initial residual = 0.009613241, Final residual = 9.219291e-07, No Iterations 10
Solving view factor equations for band : 0
Solving view factor equations for band : 1
Min/max T:299.6638 337.0209

Solving for fluid region air
DICPCG:  Solving for p_rgh, Initial residual = 0.03104134, Final residual = 0.001411974, No Iterations 6
diagonal:  Solving for rho, Initial residual = 0, Final residual = 0, No Iterations 0
time step continuity errors (air): sum local = 9.673299e-05, global = -3.004422e-06, cumulative = 2.013472
DICPCG:  Solving for p_rgh, Initial residual = 0.01710907, Final residual = 6.700752e-08, No Iterations 43
diagonal:  Solving for rho, Initial residual = 0, Final residual = 0, No Iterations 0
time step continuity errors (air): sum local = 4.747011e-09, global = -7.317049e-11, cumulative = 2.013472
DILUPBiCGStab:  Solving for epsilon, Initial residual = 0.04462121, Final residual = 8.404851e-07, No Iterations 10
DILUPBiCGStab:  Solving for k, Initial residual = 0.09910489, Final residual = 7.264823e-07, No Iterations 12

Solving for solid region solid
DICPCG:  Solving for h, Initial residual = 0.8213784, Final residual = 9.903576e-07, No Iterations 2
Min/max T:348.8841 349.1792

Solving for solid region floor
DICPCG:  Solving for h, Initial residual = 0.07234532, Final residual = 1.501112e-07, No Iterations 1
Min/max T:300.0002 300.6613
ExecutionTime = 5.5 s  ClockTime = 6 s

Region: air Courant Number mean: 1.002096 max: 7.52749
Region: solid Diffusion Number mean: 0.02570228 max: 0.2087477
Region: floor Diffusion Number mean: 0.0009115072 max: 0.008243191
deltaT = 3.087895
Time = 21.3762

diagonal:  Solving for rho, Initial residual = 0, Final residual = 0, No Iterations 0
DILUPBiCGStab:  Solving for h, Initial residual = 0.01009793, Final residual = 8.137392e-07, No Iterations 12
Solving view factor equations for band : 0
Solving view factor equations for band : 1
Min/max T:299.6461 339.386

Solving for fluid region air
DICPCG:  Solving for p_rgh, Initial residual = 0.02781925, Final residual = 0.001378736, No Iterations 5
diagonal:  Solving for rho, Initial residual = 0, Final residual = 0, No Iterations 0
time step continuity errors (air): sum local = 0.0001227921, global = -7.335174e-06, cumulative = 2.013465
DICPCG:  Solving for p_rgh, Initial residual = 0.01509089, Final residual = 7.159729e-08, No Iterations 43
diagonal:  Solving for rho, Initial residual = 0, Final residual = 0, No Iterations 0
time step continuity errors (air): sum local = 6.573813e-09, global = -1.633714e-10, cumulative = 2.013465
DILUPBiCGStab:  Solving for epsilon, Initial residual = 0.0284242, Final residual = 9.102852e-07, No Iterations 11
DILUPBiCGStab:  Solving for k, Initial residual = 0.08251664, Final residual = 7.320128e-07, No Iterations 14

Solving for solid region solid
DICPCG:  Solving for h, Initial residual = 0.8262792, Final residual = 4.638559e-09, No Iterations 3
Min/max T:348.7377 349.041

Solving for solid region floor
DICPCG:  Solving for h, Initial residual = 0.07495212, Final residual = 2.236613e-07, No Iterations 1
Min/max T:300.0002 300.6642
ExecutionTime = 5.6 s  ClockTime = 6 s

Region: air Courant Number mean: 1.195015 max: 8.954199
Region: solid Diffusion Number mean: 0.03080978 max: 0.2502296
Region: floor Diffusion Number mean: 0.00109264 max: 0.009881261
deltaT = 3.087895
Time = 24.4641

diagonal:  Solving for rho, Initial residual = 0, Final residual = 0, No Iterations 0
DILUPBiCGStab:  Solving for h, Initial residual = 0.009524743, Final residual = 3.470716e-07, No Iterations 13
Solving view factor equations for band : 0
Solving view factor equations for band : 1
Min/max T:299.6266 341.2434

Solving for fluid region air
DICPCG:  Solving for p_rgh, Initial residual = 0.02232558, Final residual = 0.000849808, No Iterations 5
diagonal:  Solving for rho, Initial residual = 0, Final residual = 0, No Iterations 0
time step continuity errors (air): sum local = 8.072781e-05, global = -7.706152e-06, cumulative = 2.013457
DICPCG:  Solving for p_rgh, Initial residual = 0.01148905, Final residual = 7.470365e-08, No Iterations 42
diagonal:  Solving for rho, Initial residual = 0, Final residual = 0, No Iterations 0
time step continuity errors (air): sum local = 7.267916e-09, global = 1.344501e-11, cumulative = 2.013457
DILUPBiCGStab:  Solving for epsilon, Initial residual = 0.01700322, Final residual = 6.720838e-07, No Iterations 12
DILUPBiCGStab:  Solving for k, Initial residual = 0.06077914, Final residual = 9.713367e-07, No Iterations 14

Solving for solid region solid
DICPCG:  Solving for h, Initial residual = 0.8056119, Final residual = 4.477966e-09, No Iterations 3
Min/max T:348.5644 348.9031

Solving for solid region floor
DICPCG:  Solving for h, Initial residual = 0.06514335, Final residual = 1.947077e-07, No Iterations 1
Min/max T:300.0003 300.6672
ExecutionTime = 5.7 s  ClockTime = 6 s

Region: air Courant Number mean: 1.189328 max: 8.889956
Region: solid Diffusion Number mean: 0.03080978 max: 0.2502296
Region: floor Diffusion Number mean: 0.00109264 max: 0.009881261
deltaT = 3.087895
Time = 27.552

diagonal:  Solving for rho, Initial residual = 0, Final residual = 0, No Iterations 0
DILUPBiCGStab:  Solving for h, Initial residual = 0.008785116, Final residual = 7.957167e-07, No Iterations 12
Solving view factor equations for band : 0
Solving view factor equations for band : 1
Min/max T:299.6187 342.695

Solving for fluid region air
DICPCG:  Solving for p_rgh, Initial residual = 0.01976088, Final residual = 0.0008400657, No Iterations 5
diagonal:  Solving for rho, Initial residual = 0, Final residual = 0, No Iterations 0
time step continuity errors (air): sum local = 8.408401e-05, global = -6.617445e-06, cumulative = 2.013451
DICPCG:  Solving for p_rgh, Initial residual = 0.009402967, Final residual = 7.843286e-08, No Iterations 42
diagonal:  Solving for rho, Initial residual = 0, Final residual = 0, No Iterations 0
time step continuity errors (air): sum local = 8.008641e-09, global = 1.376655e-10, cumulative = 2.013451
DILUPBiCGStab:  Solving for epsilon, Initial residual = 0.01087098, Final residual = 9.509077e-07, No Iterations 12
DILUPBiCGStab:  Solving for k, Initial residual = 0.04408946, Final residual = 7.555683e-07, No Iterations 14

Solving for solid region solid
DICPCG:  Solving for h, Initial residual = 0.786723, Final residual = 4.331045e-09, No Iterations 3
Min/max T:348.3925 348.7654

Solving for solid region floor
DICPCG:  Solving for h, Initial residual = 0.05767148, Final residual = 1.726485e-07, No Iterations 1
Min/max T:300.0003 300.6702
ExecutionTime = 5.79 s  ClockTime = 6 s

Region: air Courant Number mean: 1.184115 max: 8.837296
Region: solid Diffusion Number mean: 0.03080978 max: 0.2502296
Region: floor Diffusion Number mean: 0.00109264 max: 0.009881261
deltaT = 3.087895
Time = 30.6399

diagonal:  Solving for rho, Initial residual = 0, Final residual = 0, No Iterations 0
DILUPBiCGStab:  Solving for h, Initial residual = 0.00806693, Final residual = 6.693917e-07, No Iterations 12
Solving view factor equations for band : 0
Solving view factor equations for band : 1
Min/max T:299.6131 343.8226

Solving for fluid region air
DICPCG:  Solving for p_rgh, Initial residual = 0.01659276, Final residual = 0.0006595075, No Iterations 5
diagonal:  Solving for rho, Initial residual = 0, Final residual = 0, No Iterations 0
time step continuity errors (air): sum local = 6.960246e-05, global = -4.361909e-06, cumulative = 2.013446
DICPCG:  Solving for p_rgh, Initial residual = 0.007518042, Final residual = 6.738766e-08, No Iterations 42
diagonal:  Solving for rho, Initial residual = 0, Final residual = 0, No Iterations 0
time step continuity errors (air): sum local = 7.229782e-09, global = 5.181948e-11, cumulative = 2.013446
DILUPBiCGStab:  Solving for epsilon, Initial residual = 0.007763833, Final residual = 7.448759e-07, No Iterations 11
DILUPBiCGStab:  Solving for k, Initial residual = 0.03352806, Final residual = 8.500158e-07, No Iterations 14

Solving for solid region solid
DICPCG:  Solving for h, Initial residual = 0.7694829, Final residual = 4.195397e-09, No Iterations 3
Min/max T:348.2232 348.628

Solving for solid region floor
DICPCG:  Solving for h, Initial residual = 0.05178381, Final residual = 1.552658e-07, No Iterations 1
Min/max T:300.0004 300.6731
ExecutionTime = 5.9 s  ClockTime = 6 s

Region: air Courant Number mean: 1.179356 max: 8.792955
Region: solid Diffusion Number mean: 0.03080978 max: 0.2502296
Region: floor Diffusion Number mean: 0.00109264 max: 0.009881261
deltaT = 3.087895
Time = 33.7278

diagonal:  Solving for rho, Initial residual = 0, Final residual = 0, No Iterations 0
DILUPBiCGStab:  Solving for h, Initial residual = 0.007467008, Final residual = 8.363739e-07, No Iterations 12
Solving view factor equations for band : 0
Solving view factor equations for band : 1
Min/max T:299.6095 344.6915

Solving for fluid region air
DICPCG:  Solving for p_rgh, Initial residual = 0.01305369, Final residual = 0.0004825559, No Iterations 5
diagonal:  Solving for rho, Initial residual = 0, Final residual = 0, No Iterations 0
time step continuity errors (air): sum local = 5.270572e-05, global = -5.752781e-06, cumulative = 2.013441
DICPCG:  Solving for p_rgh, Initial residual = 0.00621233, Final residual = 7.958348e-08, No Iterations 39
diagonal:  Solving for rho, Initial residual = 0, Final residual = 0, No Iterations 0
time step continuity errors (air): sum local = 8.794774e-09, global = 1.498592e-10, cumulative = 2.013441
DILUPBiCGStab:  Solving for epsilon, Initial residual = 0.00609837, Final residual = 9.737266e-07, No Iterations 11
DILUPBiCGStab:  Solving for k, Initial residual = 0.02571146, Final residual = 8.241341e-07, No Iterations 14

Solving for solid region solid
DICPCG:  Solving for h, Initial residual = 0.7537449, Final residual = 4.0704e-09, No Iterations 3
Min/max T:348.0562 348.4907

Solving for solid region floor
DICPCG:  Solving for h, Initial residual = 0.04702035, Final residual = 1.411983e-07, No Iterations 1
Min/max T:300.0005 300.676
ExecutionTime = 6 s  ClockTime = 6 s

Region: air Courant Number mean: 1.174897 max: 8.749181
Region: solid Diffusion Number mean: 0.03080978 max: 0.2502296
Region: floor Diffusion Number mean: 0.00109264 max: 0.009881261
deltaT = 3.087895
Time = 36.8157

diagonal:  Solving for rho, Initial residual = 0, Final residual = 0, No Iterations 0
DILUPBiCGStab:  Solving for h, Initial residual = 0.006944546, Final residual = 5.342033e-07, No Iterations 12
Solving view factor equations for band : 0
Solving view factor equations for band : 1
Min/max T:299.6075 345.3539

Solving for fluid region air
DICPCG:  Solving for p_rgh, Initial residual = 0.01172449, Final residual = 0.000482665, No Iterations 5
diagonal:  Solving for rho, Initial residual = 0, Final residual = 0, No Iterations 0
time step continuity errors (air): sum local = 5.440003e-05, global = -3.522078e-06, cumulative = 2.013437
DICPCG:  Solving for p_rgh, Initial residual = 0.005255398, Final residual = 8.120175e-08, No Iterations 41
diagonal:  Solving for rho, Initial residual = 0, Final residual = 0, No Iterations 0
time step continuity errors (air): sum local = 9.24523e-09, global = 4.570282e-10, cumulative = 2.013437
DILUPBiCGStab:  Solving for epsilon, Initial residual = 0.004996946, Final residual = 8.30581e-07, No Iterations 11
DILUPBiCGStab:  Solving for k, Initial residual = 0.02009456, Final residual = 8.982685e-07, No Iterations 14

Solving for solid region solid
DICPCG:  Solving for h, Initial residual = 0.7393062, Final residual = 3.954129e-09, No Iterations 3
Min/max T:347.8915 348.3537

Solving for solid region floor
DICPCG:  Solving for h, Initial residual = 0.04308396, Final residual = 1.295682e-07, No Iterations 1
Min/max T:300.0006 300.679
ExecutionTime = 6.11 s  ClockTime = 6 s

Region: air Courant Number mean: 1.170689 max: 8.708255
Region: solid Diffusion Number mean: 0.03080978 max: 0.2502296
Region: floor Diffusion Number mean: 0.00109264 max: 0.009881261
deltaT = 3.087895
Time = 39.9036

diagonal:  Solving for rho, Initial residual = 0, Final residual = 0, No Iterations 0
DILUPBiCGStab:  Solving for h, Initial residual = 0.006413602, Final residual = 9.858505e-07, No Iterations 11
Solving view factor equations for band : 0
Solving view factor equations for band : 1
Min/max T:299.6071 345.8517

Solving for fluid region air
DICPCG:  Solving for p_rgh, Initial residual = 0.01100716, Final residual = 0.0004653537, No Iterations 5
diagonal:  Solving for rho, Initial residual = 0, Final residual = 0, No Iterations 0
time step continuity errors (air): sum local = 5.413349e-05, global = -3.531694e-06, cumulative = 2.013434
DICPCG:  Solving for p_rgh, Initial residual = 0.004513275, Final residual = 7.960419e-08, No Iterations 41
diagonal:  Solving for rho, Initial residual = 0, Final residual = 0, No Iterations 0
time step continuity errors (air): sum local = 9.348599e-09, global = 2.882349e-10, cumulative = 2.013434
DILUPBiCGStab:  Solving for epsilon, Initial residual = 0.004210225, Final residual = 7.354183e-07, No Iterations 11
DILUPBiCGStab:  Solving for k, Initial residual = 0.01583449, Final residual = 6.926567e-07, No Iterations 14

Solving for solid region solid
DICPCG:  Solving for h, Initial residual = 0.7260727, Final residual = 3.846056e-09, No Iterations 3
Min/max T:347.7287 348.217

Solving for solid region floor
DICPCG:  Solving for h, Initial residual = 0.03977418, Final residual = 1.197848e-07, No Iterations 1
Min/max T:300.0007 300.6819
ExecutionTime = 6.21 s  ClockTime = 7 s

Region: air Courant Number mean: 1.166748 max: 8.676955
Region: solid Diffusion Number mean: 0.03080978 max: 0.2502296
Region: floor Diffusion Number mean: 0.00109264 max: 0.009881261
deltaT = 3.087895
Time = 42.9915

diagonal:  Solving for rho, Initial residual = 0, Final residual = 0, No Iterations 0
DILUPBiCGStab:  Solving for h, Initial residual = 0.005918208, Final residual = 9.544789e-07, No Iterations 11
Solving view factor equations for band : 0
Solving view factor equations for band : 1
Min/max T:299.6077 346.2181

Solving for fluid region air
DICPCG:  Solving for p_rgh, Initial residual = 0.009054665, Final residual = 0.0004353042, No Iterations 4
diagonal:  Solving for rho, Initial residual = 0, Final residual = 0, No Iterations 0
time step continuity errors (air): sum local = 5.191073e-05, global = -6.409143e-06, cumulative = 2.013427
DICPCG:  Solving for p_rgh, Initial residual = 0.003935517, Final residual = 9.439972e-08, No Iterations 38
diagonal:  Solving for rho, Initial residual = 0, Final residual = 0, No Iterations 0
time step continuity errors (air): sum local = 1.13291e-08, global = 2.067848e-10, cumulative = 2.013427
DILUPBiCGStab:  Solving for epsilon, Initial residual = 0.003797495, Final residual = 7.669316e-07, No Iterations 11
DILUPBiCGStab:  Solving for k, Initial residual = 0.01305722, Final residual = 7.921796e-07, No Iterations 14

Solving for solid region solid
DICPCG:  Solving for h, Initial residual = 0.7138675, Final residual = 3.745683e-09, No Iterations 3
Min/max T:347.5677 348.0805

Solving for solid region floor
DICPCG:  Solving for h, Initial residual = 0.03695079, Final residual = 1.114349e-07, No Iterations 1
Min/max T:300.0008 300.6848
ExecutionTime = 6.31 s  ClockTime = 7 s

Region: air Courant Number mean: 1.162899 max: 8.646292
Region: solid Diffusion Number mean: 0.03080978 max: 0.2502296
Region: floor Diffusion Number mean: 0.00109264 max: 0.009881261
deltaT = 3.087895
Time = 46.0794

diagonal:  Solving for rho, Initial residual = 0, Final residual = 0, No Iterations 0
DILUPBiCGStab:  Solving for h, Initial residual = 0.005513914, Final residual = 6.347771e-07, No Iterations 11
Solving view factor equations for band : 0
Solving view factor equations for band : 1
Min/max T:299.6089 346.4797

Solving for fluid region air
DICPCG:  Solving for p_rgh, Initial residual = 0.007911581, Final residual = 0.0003435881, No Iterations 4
diagonal:  Solving for rho, Initial residual = 0, Final residual = 0, No Iterations 0
time step continuity errors (air): sum local = 4.159137e-05, global = -6.354871e-06, cumulative = 2.013421
DICPCG:  Solving for p_rgh, Initial residual = 0.003473834, Final residual = 8.877741e-08, No Iterations 37
diagonal:  Solving for rho, Initial residual = 0, Final residual = 0, No Iterations 0
time step continuity errors (air): sum local = 1.080735e-08, global = -3.468481e-10, cumulative = 2.013421
DILUPBiCGStab:  Solving for epsilon, Initial residual = 0.003721277, Final residual = 7.317702e-07, No Iterations 11
DILUPBiCGStab:  Solving for k, Initial residual = 0.01082034, Final residual = 7.574057e-07, No Iterations 14

Solving for solid region solid
DICPCG:  Solving for h, Initial residual = 0.7024794, Final residual = 3.651307e-09, No Iterations 3
Min/max T:347.4084 347.9443

Solving for solid region floor
DICPCG:  Solving for h, Initial residual = 0.03451274, Final residual = 1.042209e-07, No Iterations 1
Min/max T:300.001 300.6877
ExecutionTime = 6.42 s  ClockTime = 7 s

Region: air Courant Number mean: 1.159124 max: 8.614171
Region: solid Diffusion Number mean: 0.03080978 max: 0.2502296
Region: floor Diffusion Number mean: 0.00109264 max: 0.009881261
deltaT = 3.087895
Time = 49.1673

diagonal:  Solving for rho, Initial residual = 0, Final residual = 0, No Iterations 0
DILUPBiCGStab:  Solving for h, Initial residual = 0.00513253, Final residual = 8.412773e-07, No Iterations 12
Solving view factor equations for band : 0
Solving view factor equations for band : 1
Min/max T:299.611 346.6579

Solving for fluid region air
DICPCG:  Solving for p_rgh, Initial residual = 0.008751532, Final residual = 0.0003996748, No Iterations 4
diagonal:  Solving for rho, Initial residual = 0, Final residual = 0, No Iterations 0
time step continuity errors (air): sum local = 4.934104e-05, global = -3.87025e-06, cumulative = 2.013417
DICPCG:  Solving for p_rgh, Initial residual = 0.003240128, Final residual = 9.235307e-08, No Iterations 40
diagonal:  Solving for rho, Initial residual = 0, Final residual = 0, No Iterations 0
time step continuity errors (air): sum local = 1.145241e-08, global = 5.754489e-10, cumulative = 2.013417
DILUPBiCGStab:  Solving for epsilon, Initial residual = 0.00270178, Final residual = 8.72636e-07, No Iterations 10
DILUPBiCGStab:  Solving for k, Initial residual = 0.007908901, Final residual = 9.907406e-07, No Iterations 13

Solving for solid region solid
DICPCG:  Solving for h, Initial residual = 0.6918081, Final residual = 3.562041e-09, No Iterations 3
Min/max T:347.2506 347.8085

Solving for solid region floor
DICPCG:  Solving for h, Initial residual = 0.03238535, Final residual = 9.792262e-08, No Iterations 1
Min/max T:300.0011 300.6906
ExecutionTime = 6.52 s  ClockTime = 7 s

Region: air Courant Number mean: 1.155404 max: 8.590266
Region: solid Diffusion Number mean: 0.03080978 max: 0.2502296
Region: floor Diffusion Number mean: 0.00109264 max: 0.009881261
deltaT = 3.087895
Time = 52.2552

diagonal:  Solving for rho, Initial residual = 0, Final residual = 0, No Iterations 0
DILUPBiCGStab:  Solving for h, Initial residual = 0.004678248, Final residual = 3.621328e-07, No Iterations 12
Solving view factor equations for band : 0
Solving view factor equations for band : 1
Min/max T:299.6136 346.7697

Solving for fluid region air
DICPCG:  Solving for p_rgh, Initial residual = 0.006823184, Final residual = 0.0002728497, No Iterations 4
diagonal:  Solving for rho, Initial residual = 0, Final residual = 0, No Iterations 0
time step continuity errors (air): sum local = 3.425241e-05, global = -5.777562e-06, cumulative = 2.013411
DICPCG:  Solving for p_rgh, Initial residual = 0.002581502, Final residual = 9.90945e-08, No Iterations 37
diagonal:  Solving for rho, Initial residual = 0, Final residual = 0, No Iterations 0
time step continuity errors (air): sum local = 1.24912e-08, global = 7.765526e-10, cumulative = 2.013411
DILUPBiCGStab:  Solving for epsilon, Initial residual = 0.001790785, Final residual = 7.439239e-07, No Iterations 10
DILUPBiCGStab:  Solving for k, Initial residual = 0.005471403, Final residual = 5.625865e-07, No Iterations 13

Solving for solid region solid
DICPCG:  Solving for h, Initial residual = 0.6818136, Final residual = 3.47802e-09, No Iterations 3
Min/max T:347.0943 347.6728

Solving for solid region floor
DICPCG:  Solving for h, Initial residual = 0.0305122, Final residual = 9.237382e-08, No Iterations 1
Min/max T:300.0012 300.6935
ExecutionTime = 6.62 s  ClockTime = 7 s

Region: air Courant Number mean: 1.15183 max: 8.56691
Region: solid Diffusion Number mean: 0.03080978 max: 0.2502296
Region: floor Diffusion Number mean: 0.00109264 max: 0.009881261
deltaT = 3.087895
Time = 55.3431

diagonal:  Solving for rho, Initial residual = 0, Final residual = 0, No Iterations 0
DILUPBiCGStab:  Solving for h, Initial residual = 0.004292665, Final residual = 3.625234e-07, No Iterations 11
Solving view factor equations for band : 0
Solving view factor equations for band : 1
Min/max T:299.6164 346.8286

Solving for fluid region air
DICPCG:  Solving for p_rgh, Initial residual = 0.004379928, Final residual = 0.0001900628, No Iterations 4
diagonal:  Solving for rho, Initial residual = 0, Final residual = 0, No Iterations 0
time step continuity errors (air): sum local = 2.408643e-05, global = -4.623541e-06, cumulative = 2.013407
DICPCG:  Solving for p_rgh, Initial residual = 0.002033216, Final residual = 8.359121e-08, No Iterations 37
diagonal:  Solving for rho, Initial residual = 0, Final residual = 0, No Iterations 0
time step continuity errors (air): sum local = 1.063092e-08, global = 7.104592e-10, cumulative = 2.013407
DILUPBiCGStab:  Solving for epsilon, Initial residual = 0.001626362, Final residual = 6.782237e-07, No Iterations 10
DILUPBiCGStab:  Solving for k, Initial residual = 0.004300627, Final residual = 5.634761e-07, No Iterations 13

Solving for solid region solid
DICPCG:  Solving for h, Initial residual = 0.672427, Final residual = 3.39873e-09, No Iterations 3
Min/max T:346.9393 347.5375

Solving for solid region floor
DICPCG:  Solving for h, Initial residual = 0.02884984, Final residual = 8.744666e-08, No Iterations 1
Min/max T:300.0014 300.6964
ExecutionTime = 6.71 s  ClockTime = 7 s

Region: air Courant Number mean: 1.148457 max: 8.542071
Region: solid Diffusion Number mean: 0.03080978 max: 0.2502296
Region: floor Diffusion Number mean: 0.00109264 max: 0.009881261
deltaT = 3.087895
Time = 58.431

diagonal:  Solving for rho, Initial residual = 0, Final residual = 0, No Iterations 0
DILUPBiCGStab:  Solving for h, Initial residual = 0.00398614, Final residual = 7.980554e-07, No Iterations 12
Solving view factor equations for band : 0
Solving view factor equations for band : 1
Min/max T:299.6196 346.8454

Solving for fluid region air
DICPCG:  Solving for p_rgh, Initial residual = 0.00455471, Final residual = 0.0002013007, No Iterations 5
diagonal:  Solving for rho, Initial residual = 0, Final residual = 0, No Iterations 0
time step continuity errors (air): sum local = 2.57336e-05, global = -1.92608e-06, cumulative = 2.013405
DICPCG:  Solving for p_rgh, Initial residual = 0.001827435, Final residual = 9.106803e-08, No Iterations 39
diagonal:  Solving for rho, Initial residual = 0, Final residual = 0, No Iterations 0
time step continuity errors (air): sum local = 1.167732e-08, global = 8.358282e-10, cumulative = 2.013405
DILUPBiCGStab:  Solving for epsilon, Initial residual = 0.001348973, Final residual = 5.771254e-07, No Iterations 10
DILUPBiCGStab:  Solving for k, Initial residual = 0.003453509, Final residual = 8.466371e-07, No Iterations 12

Solving for solid region solid
DICPCG:  Solving for h, Initial residual = 0.6635448, Final residual = 3.323093e-09, No Iterations 3
Min/max T:346.7857 347.4025

Solving for solid region floor
DICPCG:  Solving for h, Initial residual = 0.02736428, Final residual = 8.304077e-08, No Iterations 1
Min/max T:300.0015 300.6992
ExecutionTime = 6.81 s  ClockTime = 7 s

Region: air Courant Number mean: 1.145207 max: 8.522587
Region: solid Diffusion Number mean: 0.03080978 max: 0.2502296
Region: floor Diffusion Number mean: 0.00109264 max: 0.009881261
deltaT = 3.087895
Time = 61.5189

diagonal:  Solving for rho, Initial residual = 0, Final residual = 0, No Iterations 0
DILUPBiCGStab:  Solving for h, Initial residual = 0.003678087, Final residual = 9.141567e-07, No Iterations 11
Solving view factor equations for band : 0
Solving view factor equations for band : 1
Min/max T:299.623 346.8288

Solving for fluid region air
DICPCG:  Solving for p_rgh, Initial residual = 0.004292377, Final residual = 0.0001711207, No Iterations 5
diagonal:  Solving for rho, Initial residual = 0, Final residual = 0, No Iterations 0
time step continuity errors (air): sum local = 2.216713e-05, global = -1.819504e-06, cumulative = 2.013403
DICPCG:  Solving for p_rgh, Initial residual = 0.001569453, Final residual = 9.533852e-08, No Iterations 38
diagonal:  Solving for rho, Initial residual = 0, Final residual = 0, No Iterations 0
time step continuity errors (air): sum local = 1.238896e-08, global = 1.035384e-09, cumulative = 2.013403
DILUPBiCGStab:  Solving for epsilon, Initial residual = 0.001543044, Final residual = 8.761969e-07, No Iterations 10
DILUPBiCGStab:  Solving for k, Initial residual = 0.003255855, Final residual = 9.461892e-07, No Iterations 12

Solving for solid region solid
DICPCG:  Solving for h, Initial residual = 0.6551844, Final residual = 3.251361e-09, No Iterations 3
Min/max T:346.6332 347.2679

Solving for solid region floor
DICPCG:  Solving for h, Initial residual = 0.0260285, Final residual = 7.907647e-08, No Iterations 1
Min/max T:300.0017 300.7021
ExecutionTime = 6.9 s  ClockTime = 7 s

Region: air Courant Number mean: 1.142079 max: 8.505318
Region: solid Diffusion Number mean: 0.03080978 max: 0.2502296
Region: floor Diffusion Number mean: 0.00109264 max: 0.009881261
deltaT = 3.087895
Time = 64.6068

diagonal:  Solving for rho, Initial residual = 0, Final residual = 0, No Iterations 0
DILUPBiCGStab:  Solving for h, Initial residual = 0.003447083, Final residual = 8.487586e-07, No Iterations 12
Solving view factor equations for band : 0
Solving view factor equations for band : 1
Min/max T:299.6265 346.7857

Solving for fluid region air
DICPCG:  Solving for p_rgh, Initial residual = 0.003703991, Final residual = 0.0001633707, No Iterations 4
diagonal:  Solving for rho, Initial residual = 0, Final residual = 0, No Iterations 0
time step continuity errors (air): sum local = 2.128348e-05, global = -5.014553e-06, cumulative = 2.013398
DICPCG:  Solving for p_rgh, Initial residual = 0.001582448, Final residual = 9.352205e-08, No Iterations 36
diagonal:  Solving for rho, Initial residual = 0, Final residual = 0, No Iterations 0
time step continuity errors (air): sum local = 1.220935e-08, global = -8.301018e-10, cumulative = 2.013398
DILUPBiCGStab:  Solving for epsilon, Initial residual = 0.001192892, Final residual = 8.767328e-07, No Iterations 9
DILUPBiCGStab:  Solving for k, Initial residual = 0.002884106, Final residual = 8.841618e-07, No Iterations 12

Solving for solid region solid
DICPCG:  Solving for h, Initial residual = 0.6472944, Final residual = 3.18342e-09, No Iterations 3
Min/max T:346.4818 347.1335

Solving for solid region floor
DICPCG:  Solving for h, Initial residual = 0.02482076, Final residual = 7.54897e-08, No Iterations 1
Min/max T:300.0018 300.705
ExecutionTime = 7 s  ClockTime = 7 s

Region: air Courant Number mean: 1.138858 max: 8.483161
Region: solid Diffusion Number mean: 0.03080978 max: 0.2502296
Region: floor Diffusion Number mean: 0.00109264 max: 0.009881261
deltaT = 3.087895
Time = 67.6946

diagonal:  Solving for rho, Initial residual = 0, Final residual = 0, No Iterations 0
DILUPBiCGStab:  Solving for h, Initial residual = 0.003170906, Final residual = 7.737224e-07, No Iterations 12
Solving view factor equations for band : 0
Solving view factor equations for band : 1
Min/max T:299.63 346.7216

Solving for fluid region air
DICPCG:  Solving for p_rgh, Initial residual = 0.00325053, Final residual = 0.0001582434, No Iterations 4
diagonal:  Solving for rho, Initial residual = 0, Final residual = 0, No Iterations 0
time step continuity errors (air): sum local = 2.071994e-05, global = -2.31537e-06, cumulative = 2.013396
DICPCG:  Solving for p_rgh, Initial residual = 0.001420911, Final residual = 9.673688e-08, No Iterations 37
diagonal:  Solving for rho, Initial residual = 0, Final residual = 0, No Iterations 0
time step continuity errors (air): sum local = 1.268952e-08, global = 7.803776e-10, cumulative = 2.013396
DILUPBiCGStab:  Solving for epsilon, Initial residual = 0.00120261, Final residual = 9.646994e-07, No Iterations 9
DILUPBiCGStab:  Solving for k, Initial residual = 0.002300347, Final residual = 7.202044e-07, No Iterations 12

Solving for solid region solid
DICPCG:  Solving for h, Initial residual = 0.6397879, Final residual = 3.11838e-09, No Iterations 3
Min/max T:346.3315 346.9995

Solving for solid region floor
DICPCG:  Solving for h, Initial residual = 0.0237234, Final residual = 7.222839e-08, No Iterations 1
Min/max T:300.002 300.7078
ExecutionTime = 7.09 s  ClockTime = 7 s

Region: air Courant Number mean: 1.135677 max: 8.465156
Region: solid Diffusion Number mean: 0.03080978 max: 0.2502296
Region: floor Diffusion Number mean: 0.00109264 max: 0.009881261
deltaT = 3.087895
Time = 70.7825

diagonal:  Solving for rho, Initial residual = 0, Final residual = 0, No Iterations 0
DILUPBiCGStab:  Solving for h, Initial residual = 0.002937868, Final residual = 6.039996e-07, No Iterations 12
Solving view factor equations for band : 0
Solving view factor equations for band : 1
Min/max T:299.6336 346.6639

Solving for fluid region air
DICPCG:  Solving for p_rgh, Initial residual = 0.003696545, Final residual = 0.0001425595, No Iterations 5
diagonal:  Solving for rho, Initial residual = 0, Final residual = 0, No Iterations 0
time step continuity errors (air): sum local = 1.878813e-05, global = -1.821369e-06, cumulative = 2.013394
DICPCG:  Solving for p_rgh, Initial residual = 0.001281103, Final residual = 9.418645e-08, No Iterations 38
diagonal:  Solving for rho, Initial residual = 0, Final residual = 0, No Iterations 0
time step continuity errors (air): sum local = 1.244437e-08, global = 7.671691e-10, cumulative = 2.013394
DILUPBiCGStab:  Solving for epsilon, Initial residual = 0.001110465, Final residual = 9.140222e-07, No Iterations 9
DILUPBiCGStab:  Solving for k, Initial residual = 0.002344803, Final residual = 9.407593e-07, No Iterations 12

Solving for solid region solid
DICPCG:  Solving for h, Initial residual = 0.6326374, Final residual = 3.056049e-09, No Iterations 3
Min/max T:346.1822 346.8658

Solving for solid region floor
DICPCG:  Solving for h, Initial residual = 0.02272187, Final residual = 6.92497e-08, No Iterations 1
Min/max T:300.0022 300.7106
ExecutionTime = 7.19 s  ClockTime = 8 s

Region: air Courant Number mean: 1.132483 max: 8.449229
Region: solid Diffusion Number mean: 0.03080978 max: 0.2502296
Region: floor Diffusion Number mean: 0.00109264 max: 0.009881261
deltaT = 3.087895
Time = 73.8704

diagonal:  Solving for rho, Initial residual = 0, Final residual = 0, No Iterations 0
DILUPBiCGStab:  Solving for h, Initial residual = 0.002720636, Final residual = 6.862257e-07, No Iterations 12
Solving view factor equations for band : 0
Solving view factor equations for band : 1
Min/max T:299.6372 346.6188

Solving for fluid region air
DICPCG:  Solving for p_rgh, Initial residual = 0.002839991, Final residual = 0.0001317505, No Iterations 4
diagonal:  Solving for rho, Initial residual = 0, Final residual = 0, No Iterations 0
time step continuity errors (air): sum local = 1.747433e-05, global = -3.340066e-06, cumulative = 2.01339
DICPCG:  Solving for p_rgh, Initial residual = 0.001247061, Final residual = 7.405452e-08, No Iterations 37
diagonal:  Solving for rho, Initial residual = 0, Final residual = 0, No Iterations 0
time step continuity errors (air): sum local = 9.837869e-09, global = -1.559848e-10, cumulative = 2.01339
DILUPBiCGStab:  Solving for epsilon, Initial residual = 0.00102944, Final residual = 6.947872e-07, No Iterations 9
DILUPBiCGStab:  Solving for k, Initial residual = 0.002078699, Final residual = 5.541786e-07, No Iterations 12

Solving for solid region solid
DICPCG:  Solving for h, Initial residual = 0.6258733, Final residual = 2.996864e-09, No Iterations 3
Min/max T:346.0339 346.7324

Solving for solid region floor
DICPCG:  Solving for h, Initial residual = 0.02180407, Final residual = 6.651845e-08, No Iterations 1
Min/max T:300.0024 300.7135
ExecutionTime = 7.29 s  ClockTime = 8 s

Region: air Courant Number mean: 1.129265 max: 8.428895
Region: solid Diffusion Number mean: 0.03080978 max: 0.2502296
Region: floor Diffusion Number mean: 0.00109264 max: 0.009881261
deltaT = 3.087895
Time = 76.9583

diagonal:  Solving for rho, Initial residual = 0, Final residual = 0, No Iterations 0
DILUPBiCGStab:  Solving for h, Initial residual = 0.002539626, Final residual = 6.878381e-07, No Iterations 12
Solving view factor equations for band : 0
Solving view factor equations for band : 1
Min/max T:299.6408 346.5569

Solving for fluid region air
DICPCG:  Solving for p_rgh, Initial residual = 0.002470229, Final residual = 9.186442e-05, No Iterations 4
diagonal:  Solving for rho, Initial residual = 0, Final residual = 0, No Iterations 0
time step continuity errors (air): sum local = 1.218392e-05, global = -2.919855e-06, cumulative = 2.013387
DICPCG:  Solving for p_rgh, Initial residual = 0.001182618, Final residual = 9.443918e-08, No Iterations 32
diagonal:  Solving for rho, Initial residual = 0, Final residual = 0, No Iterations 0
time step continuity errors (air): sum local = 1.253736e-08, global = 2.28838e-10, cumulative = 2.013387
DILUPBiCGStab:  Solving for epsilon, Initial residual = 0.001050883, Final residual = 9.59085e-07, No Iterations 9
DILUPBiCGStab:  Solving for k, Initial residual = 0.002185899, Final residual = 8.549169e-07, No Iterations 12

Solving for solid region solid
DICPCG:  Solving for h, Initial residual = 0.6190166, Final residual = 2.938239e-09, No Iterations 3
Min/max T:345.8865 346.5994

Solving for solid region floor
DICPCG:  Solving for h, Initial residual = 0.02095989, Final residual = 6.400455e-08, No Iterations 1
Min/max T:300.0026 300.7163
ExecutionTime = 7.38 s  ClockTime = 8 s

Region: air Courant Number mean: 1.126055 max: 8.408951
[...]
time step continuity errors (air): sum local = 3.190494e-09, global = 1.13588e-10, cumulative = 2.015361
DILUPBiCGStab:  Solving for epsilon, Initial residual = 0.007761568, Final residual = 8.850206e-07, No Iterations 11
DILUPBiCGStab:  Solving for k, Initial residual = 0.01431592, Final residual = 6.482927e-07, No Iterations 14

Solving for solid region solid
DICPCG:  Solving for h, Initial residual = 0.02354226, Final residual = 4.143832e-09, No Iterations 2
Min/max T:305.3009 305.6176

Solving for solid region floor
DICPCG:  Solving for h, Initial residual = 0.001267527, Final residual = 1.455943e-09, No Iterations 1
Min/max T:300.8332 302.4704
ExecutionTime = 140.58 s  ClockTime = 141 s

Region: air Courant Number mean: 0.9538071 max: 6.777785
Region: solid Diffusion Number mean: 0.03079506 max: 0.25011
Region: floor Diffusion Number mean: 0.001092118 max: 0.009876539
deltaT = 3.08642
Time = 3969.14

diagonal:  Solving for rho, Initial residual = 0, Final residual = 0, No Iterations 0
DILUPBiCGStab:  Solving for h, Initial residual = 0.01132795, Final residual = 8.47805e-07, No Iterations 12
Solving view factor equations for band : 0
Solving view factor equations for band : 1
Min/max T:300 305.6222

Solving for fluid region air
DICPCG:  Solving for p_rgh, Initial residual = 0.0705463, Final residual = 0.00327228, No Iterations 7
diagonal:  Solving for rho, Initial residual = 0, Final residual = 0, No Iterations 0
time step continuity errors (air): sum local = 8.83809e-05, global = -2.156032e-06, cumulative = 2.015359
DICPCG:  Solving for p_rgh, Initial residual = 0.011672, Final residual = 8.382827e-08, No Iterations 40
diagonal:  Solving for rho, Initial residual = 0, Final residual = 0, No Iterations 0
time step continuity errors (air): sum local = 2.236547e-09, global = -1.369695e-10, cumulative = 2.015359
DILUPBiCGStab:  Solving for epsilon, Initial residual = 0.007336907, Final residual = 8.215169e-07, No Iterations 10
DILUPBiCGStab:  Solving for k, Initial residual = 0.0162818, Final residual = 8.701941e-07, No Iterations 13

Solving for solid region solid
DICPCG:  Solving for h, Initial residual = 0.0239548, Final residual = 4.330691e-09, No Iterations 2
Min/max T:305.2986 305.615

Solving for solid region floor
DICPCG:  Solving for h, Initial residual = 0.001267284, Final residual = 1.455648e-09, No Iterations 1
Min/max T:300.8341 302.4713
ExecutionTime = 140.69 s  ClockTime = 141 s

Region: air Courant Number mean: 0.9538494 max: 6.793521
Region: solid Diffusion Number mean: 0.03079506 max: 0.25011
Region: floor Diffusion Number mean: 0.001092118 max: 0.009876539
deltaT = 3.08642
Time = 3972.22

diagonal:  Solving for rho, Initial residual = 0, Final residual = 0, No Iterations 0
DILUPBiCGStab:  Solving for h, Initial residual = 0.006327061, Final residual = 2.831656e-07, No Iterations 12
Solving view factor equations for band : 0
Solving view factor equations for band : 1
Min/max T:300 305.6191

Solving for fluid region air
DICPCG:  Solving for p_rgh, Initial residual = 0.0394574, Final residual = 0.00185712, No Iterations 7
diagonal:  Solving for rho, Initial residual = 0, Final residual = 0, No Iterations 0
time step continuity errors (air): sum local = 4.584154e-05, global = -7.804159e-06, cumulative = 2.015351
DICPCG:  Solving for p_rgh, Initial residual = 0.009391155, Final residual = 8.749162e-08, No Iterations 39
diagonal:  Solving for rho, Initial residual = 0, Final residual = 0, No Iterations 0
time step continuity errors (air): sum local = 2.186086e-09, global = -6.888233e-11, cumulative = 2.015351
DILUPBiCGStab:  Solving for epsilon, Initial residual = 0.008703349, Final residual = 9.886653e-07, No Iterations 11
DILUPBiCGStab:  Solving for k, Initial residual = 0.01417915, Final residual = 6.004633e-07, No Iterations 13

Solving for solid region solid
DICPCG:  Solving for h, Initial residual = 0.02367957, Final residual = 4.21819e-09, No Iterations 2
Min/max T:305.2964 305.6127

Solving for solid region floor
DICPCG:  Solving for h, Initial residual = 0.00126704, Final residual = 1.45534e-09, No Iterations 1
Min/max T:300.8349 302.4722
ExecutionTime = 140.8 s  ClockTime = 141 s

Region: air Courant Number mean: 0.9538042 max: 6.778845
Region: solid Diffusion Number mean: 0.03079506 max: 0.25011
Region: floor Diffusion Number mean: 0.001092118 max: 0.009876539
deltaT = 3.08642
Time = 3975.31

diagonal:  Solving for rho, Initial residual = 0, Final residual = 0, No Iterations 0
DILUPBiCGStab:  Solving for h, Initial residual = 0.00741816, Final residual = 8.768888e-07, No Iterations 11
Solving view factor equations for band : 0
Solving view factor equations for band : 1
Min/max T:300 305.6168

Solving for fluid region air
DICPCG:  Solving for p_rgh, Initial residual = 0.1255704, Final residual = 0.005689603, No Iterations 4
diagonal:  Solving for rho, Initial residual = 0, Final residual = 0, No Iterations 0
time step continuity errors (air): sum local = 0.0001815541, global = 6.063057e-06, cumulative = 2.015357
DICPCG:  Solving for p_rgh, Initial residual = 0.01133567, Final residual = 7.831963e-08, No Iterations 44
diagonal:  Solving for rho, Initial residual = 0, Final residual = 0, No Iterations 0
time step continuity errors (air): sum local = 2.762631e-09, global = 3.172122e-10, cumulative = 2.015357
DILUPBiCGStab:  Solving for epsilon, Initial residual = 0.008415818, Final residual = 8.754506e-07, No Iterations 11
DILUPBiCGStab:  Solving for k, Initial residual = 0.01334838, Final residual = 6.48262e-07, No Iterations 14

Solving for solid region solid
DICPCG:  Solving for h, Initial residual = 0.02324015, Final residual = 4.06495e-09, No Iterations 2
Min/max T:305.2942 305.6104

Solving for solid region floor
DICPCG:  Solving for h, Initial residual = 0.001266807, Final residual = 1.455093e-09, No Iterations 1
Min/max T:300.8358 302.4731
ExecutionTime = 140.9 s  ClockTime = 141 s

Region: air Courant Number mean: 0.953866 max: 6.775602
Region: solid Diffusion Number mean: 0.03079506 max: 0.25011
Region: floor Diffusion Number mean: 0.001092118 max: 0.009876539
deltaT = 3.08642
Time = 3978.4

diagonal:  Solving for rho, Initial residual = 0, Final residual = 0, No Iterations 0
DILUPBiCGStab:  Solving for h, Initial residual = 0.008550686, Final residual = 8.838342e-07, No Iterations 10
Solving view factor equations for band : 0
Solving view factor equations for band : 1
Min/max T:300 305.615

Solving for fluid region air
DICPCG:  Solving for p_rgh, Initial residual = 0.07151269, Final residual = 0.003376404, No Iterations 10
diagonal:  Solving for rho, Initial residual = 0, Final residual = 0, No Iterations 0
time step continuity errors (air): sum local = 0.0001001184, global = 1.282779e-05, cumulative = 2.01537
DICPCG:  Solving for p_rgh, Initial residual = 0.01073222, Final residual = 7.612051e-08, No Iterations 40
diagonal:  Solving for rho, Initial residual = 0, Final residual = 0, No Iterations 0
time step continuity errors (air): sum local = 2.208857e-09, global = -5.585373e-11, cumulative = 2.01537
DILUPBiCGStab:  Solving for epsilon, Initial residual = 0.006776619, Final residual = 1.361564e-07, No Iterations 12
DILUPBiCGStab:  Solving for k, Initial residual = 0.0142982, Final residual = 8.575035e-07, No Iterations 14

Solving for solid region solid
DICPCG:  Solving for h, Initial residual = 0.02363213, Final residual = 4.245958e-09, No Iterations 2
Min/max T:305.292 305.6079

Solving for solid region floor
DICPCG:  Solving for h, Initial residual = 0.001266572, Final residual = 1.454834e-09, No Iterations 1
Min/max T:300.8366 302.474
ExecutionTime = 141.01 s  ClockTime = 141 s

Region: air Courant Number mean: 0.9539406 max: 6.790094
Region: solid Diffusion Number mean: 0.03079506 max: 0.25011
Region: floor Diffusion Number mean: 0.001092118 max: 0.009876539
deltaT = 3.08642
Time = 3981.48

diagonal:  Solving for rho, Initial residual = 0, Final residual = 0, No Iterations 0
DILUPBiCGStab:  Solving for h, Initial residual = 0.008304478, Final residual = 1.337546e-07, No Iterations 12
Solving view factor equations for band : 0
Solving view factor equations for band : 1
Min/max T:300 305.6121

Solving for fluid region air
DICPCG:  Solving for p_rgh, Initial residual = 0.04383828, Final residual = 0.002083438, No Iterations 4
diagonal:  Solving for rho, Initial residual = 0, Final residual = 0, No Iterations 0
time step continuity errors (air): sum local = 5.120747e-05, global = -1.346558e-05, cumulative = 2.015356
DICPCG:  Solving for p_rgh, Initial residual = 0.009291728, Final residual = 8.841385e-08, No Iterations 38
diagonal:  Solving for rho, Initial residual = 0, Final residual = 0, No Iterations 0
time step continuity errors (air): sum local = 2.177746e-09, global = 2.986592e-10, cumulative = 2.015356
DILUPBiCGStab:  Solving for epsilon, Initial residual = 0.009992549, Final residual = 9.944316e-07, No Iterations 11
DILUPBiCGStab:  Solving for k, Initial residual = 0.01450477, Final residual = 9.343262e-07, No Iterations 13

Solving for solid region solid
DICPCG:  Solving for h, Initial residual = 0.02363482, Final residual = 4.250475e-09, No Iterations 2
Min/max T:305.2897 305.6055

Solving for solid region floor
DICPCG:  Solving for h, Initial residual = 0.001266329, Final residual = 1.454524e-09, No Iterations 1
Min/max T:300.8375 302.4749
ExecutionTime = 141.12 s  ClockTime = 141 s

Region: air Courant Number mean: 0.9538822 max: 6.786837
Region: solid Diffusion Number mean: 0.03079506 max: 0.25011
Region: floor Diffusion Number mean: 0.001092118 max: 0.009876539
deltaT = 3.08642
Time = 3984.57

diagonal:  Solving for rho, Initial residual = 0, Final residual = 0, No Iterations 0
DILUPBiCGStab:  Solving for h, Initial residual = 0.007664145, Final residual = 2.75422e-07, No Iterations 13
Solving view factor equations for band : 0
Solving view factor equations for band : 1
Min/max T:300 305.6094

Solving for fluid region air
DICPCG:  Solving for p_rgh, Initial residual = 0.1066186, Final residual = 0.004863243, No Iterations 6
diagonal:  Solving for rho, Initial residual = 0, Final residual = 0, No Iterations 0
time step continuity errors (air): sum local = 0.0001395741, global = 8.507538e-06, cumulative = 2.015365
DICPCG:  Solving for p_rgh, Initial residual = 0.01138913, Final residual = 9.374436e-08, No Iterations 42
diagonal:  Solving for rho, Initial residual = 0, Final residual = 0, No Iterations 0
time step continuity errors (air): sum local = 2.899264e-09, global = 2.566405e-10, cumulative = 2.015365
DILUPBiCGStab:  Solving for epsilon, Initial residual = 0.008209121, Final residual = 2.670197e-07, No Iterations 12
DILUPBiCGStab:  Solving for k, Initial residual = 0.01390252, Final residual = 1.799638e-07, No Iterations 18

Solving for solid region solid
DICPCG:  Solving for h, Initial residual = 0.02309489, Final residual = 4.044537e-09, No Iterations 2
Min/max T:305.2876 305.6033

Solving for solid region floor
DICPCG:  Solving for h, Initial residual = 0.001266094, Final residual = 1.454264e-09, No Iterations 1
Min/max T:300.8383 302.4758
ExecutionTime = 141.22 s  ClockTime = 141 s

Region: air Courant Number mean: 0.9540385 max: 6.771042
Region: solid Diffusion Number mean: 0.03079506 max: 0.25011
Region: floor Diffusion Number mean: 0.001092118 max: 0.009876539
deltaT = 3.08642
Time = 3987.65

diagonal:  Solving for rho, Initial residual = 0, Final residual = 0, No Iterations 0
DILUPBiCGStab:  Solving for h, Initial residual = 0.006354915, Final residual = 6.394725e-07, No Iterations 11
Solving view factor equations for band : 0
Solving view factor equations for band : 1
Min/max T:300 305.6076

Solving for fluid region air
DICPCG:  Solving for p_rgh, Initial residual = 0.05215551, Final residual = 0.002196657, No Iterations 10
diagonal:  Solving for rho, Initial residual = 0, Final residual = 0, No Iterations 0
time step continuity errors (air): sum local = 7.001923e-05, global = 1.04306e-05, cumulative = 2.015375
DICPCG:  Solving for p_rgh, Initial residual = 0.008377431, Final residual = 8.154442e-08, No Iterations 40
diagonal:  Solving for rho, Initial residual = 0, Final residual = 0, No Iterations 0
time step continuity errors (air): sum local = 2.608077e-09, global = -4.791417e-11, cumulative = 2.015375
DILUPBiCGStab:  Solving for epsilon, Initial residual = 0.007765304, Final residual = 5.272378e-07, No Iterations 12
DILUPBiCGStab:  Solving for k, Initial residual = 0.01459596, Final residual = 9.314569e-07, No Iterations 14

Solving for solid region solid
DICPCG:  Solving for h, Initial residual = 0.02323721, Final residual = 4.127726e-09, No Iterations 2
Min/max T:305.2854 305.6009

Solving for solid region floor
DICPCG:  Solving for h, Initial residual = 0.001265863, Final residual = 1.454016e-09, No Iterations 1
Min/max T:300.8392 302.4767
ExecutionTime = 141.33 s  ClockTime = 142 s

Region: air Courant Number mean: 0.9541895 max: 6.788047
Region: solid Diffusion Number mean: 0.03079506 max: 0.25011
Region: floor Diffusion Number mean: 0.001092118 max: 0.009876539
deltaT = 3.08642
Time = 3990.74

diagonal:  Solving for rho, Initial residual = 0, Final residual = 0, No Iterations 0
DILUPBiCGStab:  Solving for h, Initial residual = 0.01125186, Final residual = 6.415868e-07, No Iterations 13
Solving view factor equations for band : 0
Solving view factor equations for band : 1
Min/max T:300 305.605

Solving for fluid region air
DICPCG:  Solving for p_rgh, Initial residual = 0.05964383, Final residual = 0.002847461, No Iterations 5
diagonal:  Solving for rho, Initial residual = 0, Final residual = 0, No Iterations 0
time step continuity errors (air): sum local = 7.241224e-05, global = -1.012201e-05, cumulative = 2.015365
DICPCG:  Solving for p_rgh, Initial residual = 0.0105601, Final residual = 7.083887e-08, No Iterations 40
diagonal:  Solving for rho, Initial residual = 0, Final residual = 0, No Iterations 0
time step continuity errors (air): sum local = 1.812008e-09, global = 5.834499e-11, cumulative = 2.015365
DILUPBiCGStab:  Solving for epsilon, Initial residual = 0.008853829, Final residual = 8.62043e-07, No Iterations 10
DILUPBiCGStab:  Solving for k, Initial residual = 0.01699991, Final residual = 9.524859e-07, No Iterations 13

Solving for solid region solid
DICPCG:  Solving for h, Initial residual = 0.02350715, Final residual = 4.247966e-09, No Iterations 2
Min/max T:305.2831 305.5984

Solving for solid region floor
DICPCG:  Solving for h, Initial residual = 0.00126562, Final residual = 1.453702e-09, No Iterations 1
Min/max T:300.84 302.4775
ExecutionTime = 141.43 s  ClockTime = 142 s

Region: air Courant Number mean: 0.9541797 max: 6.793816
Region: solid Diffusion Number mean: 0.03079506 max: 0.25011
Region: floor Diffusion Number mean: 0.001092118 max: 0.009876539
deltaT = 3.08642
Time = 3993.83

diagonal:  Solving for rho, Initial residual = 0, Final residual = 0, No Iterations 0
DILUPBiCGStab:  Solving for h, Initial residual = 0.007370125, Final residual = 5.720671e-07, No Iterations 11
Solving view factor equations for band : 0
Solving view factor equations for band : 1
Min/max T:300 305.6021

Solving for fluid region air
DICPCG:  Solving for p_rgh, Initial residual = 0.06001995, Final residual = 0.002712443, No Iterations 9
diagonal:  Solving for rho, Initial residual = 0, Final residual = 0, No Iterations 0
time step continuity errors (air): sum local = 6.992698e-05, global = -1.618513e-06, cumulative = 2.015364
DICPCG:  Solving for p_rgh, Initial residual = 0.01054656, Final residual = 9.280455e-08, No Iterations 39
diagonal:  Solving for rho, Initial residual = 0, Final residual = 0, No Iterations 0
time step continuity errors (air): sum local = 2.470865e-09, global = 4.80337e-11, cumulative = 2.015364
DILUPBiCGStab:  Solving for epsilon, Initial residual = 0.007395922, Final residual = 9.670792e-07, No Iterations 8
DILUPBiCGStab:  Solving for k, Initial residual = 0.01516946, Final residual = 8.243818e-07, No Iterations 13

Solving for solid region solid
DICPCG:  Solving for h, Initial residual = 0.02306817, Final residual = 4.070569e-09, No Iterations 2
Min/max T:305.281 305.5961

Solving for solid region floor
DICPCG:  Solving for h, Initial residual = 0.001265381, Final residual = 1.453403e-09, No Iterations 1
Min/max T:300.8409 302.4784
ExecutionTime = 141.55 s  ClockTime = 142 s

Region: air Courant Number mean: 0.9541976 max: 6.773852
Region: solid Diffusion Number mean: 0.03079506 max: 0.25011
Region: floor Diffusion Number mean: 0.001092118 max: 0.009876539
deltaT = 3.08642
Time = 3996.91

diagonal:  Solving for rho, Initial residual = 0, Final residual = 0, No Iterations 0
DILUPBiCGStab:  Solving for h, Initial residual = 0.006633948, Final residual = 5.683977e-07, No Iterations 11
Solving view factor equations for band : 0
Solving view factor equations for band : 1
Min/max T:300 305.6002

Solving for fluid region air
DICPCG:  Solving for p_rgh, Initial residual = 0.08440687, Final residual = 0.002998721, No Iterations 4
diagonal:  Solving for rho, Initial residual = 0, Final residual = 0, No Iterations 0
time step continuity errors (air): sum local = 9.83308e-05, global = 3.519813e-06, cumulative = 2.015367
DICPCG:  Solving for p_rgh, Initial residual = 0.008960283, Final residual = 9.807868e-08, No Iterations 45
diagonal:  Solving for rho, Initial residual = 0, Final residual = 0, No Iterations 0
time step continuity errors (air): sum local = 3.406092e-09, global = 1.500126e-11, cumulative = 2.015367
DILUPBiCGStab:  Solving for epsilon, Initial residual = 0.007873195, Final residual = 9.830581e-07, No Iterations 11
DILUPBiCGStab:  Solving for k, Initial residual = 0.01438831, Final residual = 9.424401e-07, No Iterations 13

Solving for solid region solid
DICPCG:  Solving for h, Initial residual = 0.02286402, Final residual = 4.015176e-09, No Iterations 2
Min/max T:305.2789 305.5939

Solving for solid region floor
DICPCG:  Solving for h, Initial residual = 0.001265151, Final residual = 1.453155e-09, No Iterations 1
Min/max T:300.8417 302.4793
ExecutionTime = 141.66 s  ClockTime = 142 s

Region: air Courant Number mean: 0.9541903 max: 6.782082
Region: solid Diffusion Number mean: 0.03079506 max: 0.25011
Region: floor Diffusion Number mean: 0.001092118 max: 0.009876539
deltaT = 3.08642
Time = 4000

diagonal:  Solving for rho, Initial residual = 0, Final residual = 0, No Iterations 0
DILUPBiCGStab:  Solving for h, Initial residual = 0.0109395, Final residual = 9.812539e-07, No Iterations 11
Updating Sun position...
Number of 'potential' direct hits : 1668
Total number of hit faces : 1668
Solving view factor equations for band : 0
Solving view factor equations for band : 1
Min/max T:300 305.5981

Solving for fluid region air
DICPCG:  Solving for p_rgh, Initial residual = 0.07166914, Final residual = 0.003185729, No Iterations 8
diagonal:  Solving for rho, Initial residual = 0, Final residual = 0, No Iterations 0
time step continuity errors (air): sum local = 8.755292e-05, global = 5.979397e-07, cumulative = 2.015368
DICPCG:  Solving for p_rgh, Initial residual = 0.01103863, Final residual = 6.234028e-08, No Iterations 40
diagonal:  Solving for rho, Initial residual = 0, Final residual = 0, No Iterations 0
time step continuity errors (air): sum local = 1.703783e-09, global = -2.30776e-10, cumulative = 2.015368
DILUPBiCGStab:  Solving for epsilon, Initial residual = 0.006430364, Final residual = 6.973413e-07, No Iterations 10
DILUPBiCGStab:  Solving for k, Initial residual = 0.01415527, Final residual = 5.653995e-07, No Iterations 13

Solving for solid region solid
DICPCG:  Solving for h, Initial residual = 0.02338751, Final residual = 4.242838e-09, No Iterations 2
Min/max T:305.2766 305.5914

Solving for solid region floor
DICPCG:  Solving for h, Initial residual = 0.001251646, Final residual = 1.372255e-09, No Iterations 1
Min/max T:300.8427 302.4802
ExecutionTime = 141.88 s  ClockTime = 142 s

End

