/*---------------------------------------------------------------------------*\
| =========                 |                                                 |
| \\      /  F ield         | OpenFOAM: The Open Source CFD Toolbox           |
|  \\    /   O peration     | Version:  2506                                  |
|   \\  /    A nd           | Website:  www.openfoam.com                      |
|    \\/     M anipulation  |                                                 |
\*---------------------------------------------------------------------------*/
Build  : _615aae61d7-20250627 OPENFOAM=2506 version=v2506
Arch   : "LSB;label=32;scalar=64"
Exec   : chtMultiRegionFoam
Date   : Feb 03 2026
Time   : 14:36:12
Host   : dym
PID    : 48676
I/O    : uncollated
Case   : /home/dym/OpenFOAM/dym-v2506/run/externalSolarLoadCopy2
nProcs : 1
trapFpe: Floating point exception trapping enabled (FOAM_SIGFPE).
fileModificationChecking : Monitoring run-time modified files using timeStampMaster (fileModificationSkew 5, maxFileModificationPolls 20)
allowSystemOperations : Allowing user-supplied system call operations

// * * * * * * * * * * * * * * * * * * * * * * * * * * * * * * * * * * * * * //
Create time

Create fluid mesh for region airRegion for time = 0

Create solid mesh for region panel for time = 0

*** Reading fluid mesh thermophysical properties for region airRegion

    Adding to thermoFluid

Selecting thermodynamics package 
{
    type            heRhoThermo;
    mixture         pureMixture;
    transport       const;
    thermo          hConst;
    equationOfState perfectGas;
    specie          specie;
    energy          sensibleEnthalpy;
}

    Adding to rhoFluid

    Adding to UFluid

    Adding to phiFluid

    Adding to hRefFluid

    Adding to ghFluid

    Adding to ghfFluid

    Adding to turbulenceFluid

Selecting turbulence model type RAS
Selecting RAS turbulence model kEpsilon
RAS
{
    RASModel        kEpsilon;
    turbulence      on;
    printCoeffs     on;
    Cmu             0.09;
    C1              1.44;
    C2              1.92;
    C3              0;
    sigmak          1;
    sigmaEps        1.3;
}

    Adding to reactionFluid

Combustion model not active: combustionProperties not found
Selecting combustion model none
    Adding to radiationFluid

Selecting radiationModel viewFactor
Selecting absorptionEmissionModel none
Selecting scatterModel none
Selecting sootModel none
Selecting absorptionEmissionModel none
Selecting scatterModel none
Selecting sootModel none
Selecting boundary radiation Model: transparent
Selecting boundary radiation Model: transparent
Selecting boundary radiation Model: transparent
Selecting boundary radiation Model: transparent
Selecting boundary radiation Model: opaqueDiffusive
Selecting boundary radiation Model: transparent
Selecting boundary radiation Model: opaqueReflective
Number of 'potential' direct hits : 10836
Total number of hit faces : 10836
Creating Solar Load Model 
    Adding to KFluid

    Adding to dpdtFluid

    Adding to fieldsFluid

    Adding to QdotFluid

    Adding MRF

No MRF models present

    Adding fvOptions

*** Reading solid mesh thermophysical properties for region panel

    Adding to thermos

Selecting thermodynamics package 
{
    type            heSolidThermo;
    mixture         pureMixture;
    transport       constIso;
    thermo          hConst;
    equationOfState rhoConst;
    specie          specie;
    energy          sensibleEnthalpy;
}

    Adding to radiations

Selecting radiationModel none
    Adding fvOptions

Region: airRegion Courant Number mean: 0.1477198 max: 3.108856
Region: panel Diffusion Number mean: 0.02959479 max: 0.2828506
deltaT = 0.877193
Region: airRegion Courant Number mean: 0.1295788 max: 2.727066
Region: panel Diffusion Number mean: 0.02596034 max: 0.2481145
deltaT = 0.877193
Time = 0.877193

diagonal:  Solving for rho, Initial residual = 0, Final residual = 0, No Iterations 0
DILUPBiCGStab:  Solving for h, Initial residual = 0.009655991, Final residual = 9.574137e-07, No Iterations 8
Solving view factor equations for band : 0
Solving view factor equations for band : 1
Min/max T:300 300

Solving for fluid region airRegion
DICPCG:  Solving for p_rgh, Initial residual = 0.9823118, Final residual = 0.04650269, No Iterations 7
diagonal:  Solving for rho, Initial residual = 0, Final residual = 0, No Iterations 0
time step continuity errors (airRegion): sum local = 0.7702396, global = 0.07529742, cumulative = 0.07529742
DICPCG:  Solving for p_rgh, Initial residual = 0.7730244, Final residual = 8.005886e-08, No Iterations 43
diagonal:  Solving for rho, Initial residual = 0, Final residual = 0, No Iterations 0
time step continuity errors (airRegion): sum local = 4.191192e-07, global = -3.872875e-07, cumulative = 0.07529704
DILUPBiCGStab:  Solving for epsilon, Initial residual = 0.01492187, Final residual = 6.250681e-07, No Iterations 6
DILUPBiCGStab:  Solving for k, Initial residual = 1, Final residual = 4.562271e-07, No Iterations 11

Solving for solid region panel
DICPCG:  Solving for h, Initial residual = 1, Final residual = 1.864906e-08, No Iterations 3
Min/max T:298.0804 300.5312
ExecutionTime = 0.8 s  ClockTime = 1 s

Region: airRegion Courant Number mean: 0.2296646 max: 10.46026
Region: panel Diffusion Number mean: 0.02596034 max: 0.2481145
deltaT = 0.877193
Time = 1.75439

diagonal:  Solving for rho, Initial residual = 0, Final residual = 0, No Iterations 0
DILUPBiCGStab:  Solving for h, Initial residual = 1, Final residual = 1.087087e-07, No Iterations 5
Solving view factor equations for band : 0
Solving view factor equations for band : 1
Min/max T:299.6225 300.0801

Solving for fluid region airRegion
DICPCG:  Solving for p_rgh, Initial residual = 0.4481058, Final residual = 0.0168729, No Iterations 20
diagonal:  Solving for rho, Initial residual = 0, Final residual = 0, No Iterations 0
time step continuity errors (airRegion): sum local = 0.01182031, global = 0.0001499697, cumulative = 0.07544701
DICPCG:  Solving for p_rgh, Initial residual = 0.09826168, Final residual = 9.240018e-08, No Iterations 71
diagonal:  Solving for rho, Initial residual = 0, Final residual = 0, No Iterations 0
time step continuity errors (airRegion): sum local = 4.095745e-08, global = 2.120282e-08, cumulative = 0.07544703
DILUPBiCGStab:  Solving for epsilon, Initial residual = 0.01118526, Final residual = 6.826501e-07, No Iterations 2
DILUPBiCGStab:  Solving for k, Initial residual = 0.1285372, Final residual = 3.867781e-07, No Iterations 3

Solving for solid region panel
DICPCG:  Solving for h, Initial residual = 0.07355403, Final residual = 5.006043e-07, No Iterations 2
Min/max T:298.0597 300.5048
ExecutionTime = 1 s  ClockTime = 1 s

Region: airRegion Courant Number mean: 0.2038823 max: 11.64551
Region: panel Diffusion Number mean: 0.02596034 max: 0.2481145
deltaT = 0.877193
Time = 2.63158

diagonal:  Solving for rho, Initial residual = 0, Final residual = 0, No Iterations 0
DILUPBiCGStab:  Solving for h, Initial residual = 0.1630356, Final residual = 2.050315e-07, No Iterations 5
Solving view factor equations for band : 0
Solving view factor equations for band : 1
Min/max T:299.3545 300.0867

Solving for fluid region airRegion
DICPCG:  Solving for p_rgh, Initial residual = 0.1074248, Final residual = 0.004529051, No Iterations 13
diagonal:  Solving for rho, Initial residual = 0, Final residual = 0, No Iterations 0
time step continuity errors (airRegion): sum local = 0.0007806014, global = 0.0001293212, cumulative = 0.07557635
DICPCG:  Solving for p_rgh, Initial residual = 0.06779043, Final residual = 7.662494e-08, No Iterations 60
diagonal:  Solving for rho, Initial residual = 0, Final residual = 0, No Iterations 0
time step continuity errors (airRegion): sum local = 3.562556e-09, global = -1.369659e-11, cumulative = 0.07557635
DILUPBiCGStab:  Solving for epsilon, Initial residual = 0.02028268, Final residual = 5.998017e-07, No Iterations 3
DILUPBiCGStab:  Solving for k, Initial residual = 0.0734008, Final residual = 7.051897e-07, No Iterations 3

Solving for solid region panel
DICPCG:  Solving for h, Initial residual = 0.06936002, Final residual = 4.870497e-07, No Iterations 2
Min/max T:298.243 300.4169
ExecutionTime = 1.2 s  ClockTime = 2 s

Region: airRegion Courant Number mean: 0.1951608 max: 7.127974
Region: panel Diffusion Number mean: 0.02596034 max: 0.2481145
deltaT = 0.877193
Time = 3.50877

diagonal:  Solving for rho, Initial residual = 0, Final residual = 0, No Iterations 0
DILUPBiCGStab:  Solving for h, Initial residual = 0.01800873, Final residual = 7.737277e-07, No Iterations 3
Solving view factor equations for band : 0
Solving view factor equations for band : 1
Min/max T:299.1788 300.1121

Solving for fluid region airRegion
DICPCG:  Solving for p_rgh, Initial residual = 0.3116559, Final residual = 0.01494894, No Iterations 7
diagonal:  Solving for rho, Initial residual = 0, Final residual = 0, No Iterations 0
time step continuity errors (airRegion): sum local = 0.0001649027, global = 4.379251e-05, cumulative = 0.07562014
DICPCG:  Solving for p_rgh, Initial residual = 0.1028389, Final residual = 8.377966e-08, No Iterations 59
diagonal:  Solving for rho, Initial residual = 0, Final residual = 0, No Iterations 0
time step continuity errors (airRegion): sum local = 8.89337e-10, global = 6.704692e-11, cumulative = 0.07562014
DILUPBiCGStab:  Solving for epsilon, Initial residual = 0.03594014, Final residual = 7.019662e-07, No Iterations 3
DILUPBiCGStab:  Solving for k, Initial residual = 0.06121095, Final residual = 3.70186e-07, No Iterations 4

Solving for solid region panel
DICPCG:  Solving for h, Initial residual = 0.06307784, Final residual = 4.532791e-07, No Iterations 2
Min/max T:298.4477 300.3415
ExecutionTime = 1.4 s  ClockTime = 2 s

Region: airRegion Courant Number mean: 0.1890218 max: 7.416668
Region: panel Diffusion Number mean: 0.02596034 max: 0.2481145
deltaT = 0.877193
Time = 4.38596

diagonal:  Solving for rho, Initial residual = 0, Final residual = 0, No Iterations 0
DILUPBiCGStab:  Solving for h, Initial residual = 0.01545693, Final residual = 4.644166e-07, No Iterations 4
Solving view factor equations for band : 0
Solving view factor equations for band : 1
Min/max T:299.0718 300.1286

Solving for fluid region airRegion
DICPCG:  Solving for p_rgh, Initial residual = 0.0481223, Final residual = 0.00201342, No Iterations 11
diagonal:  Solving for rho, Initial residual = 0, Final residual = 0, No Iterations 0
time step continuity errors (airRegion): sum local = 3.630421e-05, global = 2.95845e-06, cumulative = 0.0756231
DICPCG:  Solving for p_rgh, Initial residual = 0.03889244, Final residual = 8.492333e-08, No Iterations 54
diagonal:  Solving for rho, Initial residual = 0, Final residual = 0, No Iterations 0
time step continuity errors (airRegion): sum local = 1.212942e-09, global = 9.925401e-11, cumulative = 0.0756231
DILUPBiCGStab:  Solving for epsilon, Initial residual = 0.03656154, Final residual = 6.261051e-07, No Iterations 3
DILUPBiCGStab:  Solving for k, Initial residual = 0.05482207, Final residual = 3.959565e-07, No Iterations 4

Solving for solid region panel
DICPCG:  Solving for h, Initial residual = 0.05741092, Final residual = 4.191627e-07, No Iterations 2
Min/max T:298.6238 300.2767
ExecutionTime = 1.58 s  ClockTime = 2 s

Region: airRegion Courant Number mean: 0.1843622 max: 8.09092
Region: panel Diffusion Number mean: 0.02596034 max: 0.2481145
deltaT = 0.877193
Time = 5.26316

diagonal:  Solving for rho, Initial residual = 0, Final residual = 0, No Iterations 0
DILUPBiCGStab:  Solving for h, Initial residual = 0.01417536, Final residual = 4.960347e-07, No Iterations 4
Solving view factor equations for band : 0
Solving view factor equations for band : 1
Min/max T:299.0153 300.1387

Solving for fluid region airRegion
DICPCG:  Solving for p_rgh, Initial residual = 0.03429818, Final residual = 0.001399847, No Iterations 7
diagonal:  Solving for rho, Initial residual = 0, Final residual = 0, No Iterations 0
time step continuity errors (airRegion): sum local = 1.655231e-05, global = -7.72173e-07, cumulative = 0.07562233
DICPCG:  Solving for p_rgh, Initial residual = 0.0275674, Final residual = 9.830951e-08, No Iterations 52
diagonal:  Solving for rho, Initial residual = 0, Final residual = 0, No Iterations 0
time step continuity errors (airRegion): sum local = 1.171267e-09, global = -2.772836e-11, cumulative = 0.07562233
DILUPBiCGStab:  Solving for epsilon, Initial residual = 0.03310065, Final residual = 5.973706e-07, No Iterations 3
DILUPBiCGStab:  Solving for k, Initial residual = 0.04978237, Final residual = 9.988368e-07, No Iterations 3

Solving for solid region panel
DICPCG:  Solving for h, Initial residual = 0.05219064, Final residual = 3.861547e-07, No Iterations 2
Min/max T:298.7749 300.2241
ExecutionTime = 1.76 s  ClockTime = 2 s

Region: airRegion Courant Number mean: 0.1807177 max: 8.456701
Region: panel Diffusion Number mean: 0.02596034 max: 0.2481145
deltaT = 0.877193
Time = 6.14035

diagonal:  Solving for rho, Initial residual = 0, Final residual = 0, No Iterations 0
DILUPBiCGStab:  Solving for h, Initial residual = 0.01345672, Final residual = 5.506829e-07, No Iterations 4
Solving view factor equations for band : 0
Solving view factor equations for band : 1
Min/max T:298.9951 300.1431

Solving for fluid region airRegion
DICPCG:  Solving for p_rgh, Initial residual = 0.02328905, Final residual = 0.001137696, No Iterations 6
diagonal:  Solving for rho, Initial residual = 0, Final residual = 0, No Iterations 0
time step continuity errors (airRegion): sum local = 1.317342e-05, global = -1.400897e-06, cumulative = 0.07562093
DICPCG:  Solving for p_rgh, Initial residual = 0.01868135, Final residual = 7.347504e-08, No Iterations 51
diagonal:  Solving for rho, Initial residual = 0, Final residual = 0, No Iterations 0
time step continuity errors (airRegion): sum local = 8.549218e-10, global = -3.567681e-11, cumulative = 0.07562093
DILUPBiCGStab:  Solving for epsilon, Initial residual = 0.03196264, Final residual = 5.91274e-07, No Iterations 3
DILUPBiCGStab:  Solving for k, Initial residual = 0.04570761, Final residual = 3.23669e-07, No Iterations 4

Solving for solid region panel
DICPCG:  Solving for h, Initial residual = 0.04763376, Final residual = 3.557464e-07, No Iterations 2
Min/max T:298.9047 300.1792
ExecutionTime = 1.93 s  ClockTime = 2 s

Region: airRegion Courant Number mean: 0.1778776 max: 8.660618
Region: panel Diffusion Number mean: 0.02596034 max: 0.2481145
deltaT = 0.877193
Time = 7.01754

diagonal:  Solving for rho, Initial residual = 0, Final residual = 0, No Iterations 0
DILUPBiCGStab:  Solving for h, Initial residual = 0.01308117, Final residual = 5.75226e-07, No Iterations 4
Solving view factor equations for band : 0
Solving view factor equations for band : 1
Min/max T:299.0008 300.1432

Solving for fluid region airRegion
DICPCG:  Solving for p_rgh, Initial residual = 0.01820539, Final residual = 0.0007939479, No Iterations 7
diagonal:  Solving for rho, Initial residual = 0, Final residual = 0, No Iterations 0
time step continuity errors (airRegion): sum local = 8.746236e-06, global = 3.243613e-07, cumulative = 0.07562125
DICPCG:  Solving for p_rgh, Initial residual = 0.01382517, Final residual = 8.548961e-08, No Iterations 50
diagonal:  Solving for rho, Initial residual = 0, Final residual = 0, No Iterations 0
time step continuity errors (airRegion): sum local = 9.53003e-10, global = -1.220099e-11, cumulative = 0.07562125
DILUPBiCGStab:  Solving for epsilon, Initial residual = 0.02942271, Final residual = 4.460096e-07, No Iterations 3
DILUPBiCGStab:  Solving for k, Initial residual = 0.04261544, Final residual = 3.664231e-07, No Iterations 4

Solving for solid region panel
DICPCG:  Solving for h, Initial residual = 0.04394397, Final residual = 3.278935e-07, No Iterations 2
Min/max T:299.0167 300.1437
ExecutionTime = 2.11 s  ClockTime = 2 s

Region: airRegion Courant Number mean: 0.1756947 max: 8.612291
Region: panel Diffusion Number mean: 0.02596034 max: 0.2481145
deltaT = 0.877193
Time = 7.89474

diagonal:  Solving for rho, Initial residual = 0, Final residual = 0, No Iterations 0
DILUPBiCGStab:  Solving for h, Initial residual = 0.01298196, Final residual = 5.496625e-07, No Iterations 4
Solving view factor equations for band : 0
Solving view factor equations for band : 1
Min/max T:299.0243 300.1399

Solving for fluid region airRegion
DICPCG:  Solving for p_rgh, Initial residual = 0.01590905, Final residual = 0.0006792603, No Iterations 8
diagonal:  Solving for rho, Initial residual = 0, Final residual = 0, No Iterations 0
time step continuity errors (airRegion): sum local = 7.419707e-06, global = 9.616796e-07, cumulative = 0.07562221
DICPCG:  Solving for p_rgh, Initial residual = 0.01082013, Final residual = 9.86627e-08, No Iterations 49
diagonal:  Solving for rho, Initial residual = 0, Final residual = 0, No Iterations 0
time step continuity errors (airRegion): sum local = 1.087737e-09, global = -8.269353e-12, cumulative = 0.07562221
DILUPBiCGStab:  Solving for epsilon, Initial residual = 0.02565389, Final residual = 3.930384e-07, No Iterations 3
DILUPBiCGStab:  Solving for k, Initial residual = 0.04003006, Final residual = 3.671055e-07, No Iterations 4

Solving for solid region panel
DICPCG:  Solving for h, Initial residual = 0.04120459, Final residual = 3.023481e-07, No Iterations 2
Min/max T:299.1135 300.1147
ExecutionTime = 2.3 s  ClockTime = 3 s

Region: airRegion Courant Number mean: 0.1740341 max: 8.555659
Region: panel Diffusion Number mean: 0.02596034 max: 0.2481145
deltaT = 0.877193
Time = 8.77193

diagonal:  Solving for rho, Initial residual = 0, Final residual = 0, No Iterations 0
DILUPBiCGStab:  Solving for h, Initial residual = 0.01306453, Final residual = 5.128475e-07, No Iterations 4
Solving view factor equations for band : 0
Solving view factor equations for band : 1
Min/max T:299.0595 300.1339

Solving for fluid region airRegion
DICPCG:  Solving for p_rgh, Initial residual = 0.01411733, Final residual = 0.0006276051, No Iterations 9
diagonal:  Solving for rho, Initial residual = 0, Final residual = 0, No Iterations 0
time step continuity errors (airRegion): sum local = 6.739994e-06, global = 1.415864e-06, cumulative = 0.07562363
DICPCG:  Solving for p_rgh, Initial residual = 0.00924834, Final residual = 9.296811e-08, No Iterations 49
diagonal:  Solving for rho, Initial residual = 0, Final residual = 0, No Iterations 0
time step continuity errors (airRegion): sum local = 1.013177e-09, global = -3.004142e-11, cumulative = 0.07562363
DILUPBiCGStab:  Solving for epsilon, Initial residual = 0.02253881, Final residual = 3.525874e-07, No Iterations 3
DILUPBiCGStab:  Solving for k, Initial residual = 0.03761337, Final residual = 9.890145e-07, No Iterations 3

Solving for solid region panel
DICPCG:  Solving for h, Initial residual = 0.03861833, Final residual = 2.78856e-07, No Iterations 2
Min/max T:299.1974 300.0903
ExecutionTime = 2.48 s  ClockTime = 3 s

Region: airRegion Courant Number mean: 0.172789 max: 8.442468
Region: panel Diffusion Number mean: 0.02596034 max: 0.2481145
deltaT = 0.877193
Time = 9.64912

diagonal:  Solving for rho, Initial residual = 0, Final residual = 0, No Iterations 0
DILUPBiCGStab:  Solving for h, Initial residual = 0.01326604, Final residual = 4.910403e-07, No Iterations 4
Solving view factor equations for band : 0
Solving view factor equations for band : 1
Min/max T:299.1021 300.126

Solving for fluid region airRegion
DICPCG:  Solving for p_rgh, Initial residual = 0.01184467, Final residual = 0.0005724298, No Iterations 10
diagonal:  Solving for rho, Initial residual = 0, Final residual = 0, No Iterations 0
time step continuity errors (airRegion): sum local = 6.109906e-06, global = 1.312748e-06, cumulative = 0.07562494
DICPCG:  Solving for p_rgh, Initial residual = 0.008078186, Final residual = 9.290006e-08, No Iterations 49
diagonal:  Solving for rho, Initial residual = 0, Final residual = 0, No Iterations 0
time step continuity errors (airRegion): sum local = 1.004304e-09, global = -6.051422e-11, cumulative = 0.07562494
DILUPBiCGStab:  Solving for epsilon, Initial residual = 0.02042296, Final residual = 8.74058e-07, No Iterations 3
DILUPBiCGStab:  Solving for k, Initial residual = 0.03546755, Final residual = 9.568976e-07, No Iterations 3

Solving for solid region panel
DICPCG:  Solving for h, Initial residual = 0.03618044, Final residual = 2.574723e-07, No Iterations 2
Min/max T:299.2702 300.0794
ExecutionTime = 2.65 s  ClockTime = 3 s

Region: airRegion Courant Number mean: 0.1718912 max: 8.264214
Region: panel Diffusion Number mean: 0.02596034 max: 0.2481145
deltaT = 0.877193
Time = 10.5263

diagonal:  Solving for rho, Initial residual = 0, Final residual = 0, No Iterations 0
DILUPBiCGStab:  Solving for h, Initial residual = 0.01356496, Final residual = 4.827971e-07, No Iterations 4
Solving view factor equations for band : 0
Solving view factor equations for band : 1
Min/max T:299.1488 300.1167

Solving for fluid region airRegion
DICPCG:  Solving for p_rgh, Initial residual = 0.01108218, Final residual = 0.0004604663, No Iterations 11
diagonal:  Solving for rho, Initial residual = 0, Final residual = 0, No Iterations 0
time step continuity errors (airRegion): sum local = 4.895703e-06, global = 1.057072e-06, cumulative = 0.075626
DICPCG:  Solving for p_rgh, Initial residual = 0.007362316, Final residual = 9.294977e-08, No Iterations 49
diagonal:  Solving for rho, Initial residual = 0, Final residual = 0, No Iterations 0
time step continuity errors (airRegion): sum local = 1.000493e-09, global = -7.912117e-11, cumulative = 0.075626
DILUPBiCGStab:  Solving for epsilon, Initial residual = 0.01874609, Final residual = 7.920209e-07, No Iterations 3
DILUPBiCGStab:  Solving for k, Initial residual = 0.03341862, Final residual = 9.408411e-07, No Iterations 3

Solving for solid region panel
DICPCG:  Solving for h, Initial residual = 0.03388889, Final residual = 2.380478e-07, No Iterations 2
Min/max T:299.3335 300.0725
ExecutionTime = 2.83 s  ClockTime = 3 s

Region: airRegion Courant Number mean: 0.1713096 max: 8.04032
Region: panel Diffusion Number mean: 0.02596034 max: 0.2481145
deltaT = 0.877193
Time = 11.4035

diagonal:  Solving for rho, Initial residual = 0, Final residual = 0, No Iterations 0
DILUPBiCGStab:  Solving for h, Initial residual = 0.01392999, Final residual = 4.717296e-07, No Iterations 4
Solving view factor equations for band : 0
Solving view factor equations for band : 1
Min/max T:299.1971 300.1064

Solving for fluid region airRegion
DICPCG:  Solving for p_rgh, Initial residual = 0.009852787, Final residual = 0.0004508767, No Iterations 11
diagonal:  Solving for rho, Initial residual = 0, Final residual = 0, No Iterations 0
time step continuity errors (airRegion): sum local = 4.788963e-06, global = 1.045227e-06, cumulative = 0.07562704
DICPCG:  Solving for p_rgh, Initial residual = 0.006852204, Final residual = 9.21199e-08, No Iterations 49
diagonal:  Solving for rho, Initial residual = 0, Final residual = 0, No Iterations 0
time step continuity errors (airRegion): sum local = 9.892042e-10, global = -8.170744e-11, cumulative = 0.07562704
DILUPBiCGStab:  Solving for epsilon, Initial residual = 0.0174947, Final residual = 7.700764e-07, No Iterations 3
DILUPBiCGStab:  Solving for k, Initial residual = 0.03166964, Final residual = 9.429417e-07, No Iterations 3

Solving for solid region panel
DICPCG:  Solving for h, Initial residual = 0.03174236, Final residual = 2.205399e-07, No Iterations 2
Min/max T:299.3887 300.0654
ExecutionTime = 3 s  ClockTime = 3 s

Region: airRegion Courant Number mean: 0.1710111 max: 7.816308
Region: panel Diffusion Number mean: 0.02596034 max: 0.2481145
deltaT = 0.877193
Time = 12.2807

diagonal:  Solving for rho, Initial residual = 0, Final residual = 0, No Iterations 0
DILUPBiCGStab:  Solving for h, Initial residual = 0.01437278, Final residual = 4.610076e-07, No Iterations 4
Solving view factor equations for band : 0
Solving view factor equations for band : 1
Min/max T:299.2404 300.0955

Solving for fluid region airRegion
DICPCG:  Solving for p_rgh, Initial residual = 0.009233709, Final residual = 0.0004131334, No Iterations 11
diagonal:  Solving for rho, Initial residual = 0, Final residual = 0, No Iterations 0
time step continuity errors (airRegion): sum local = 4.393329e-06, global = 1.045344e-06, cumulative = 0.07562809
DICPCG:  Solving for p_rgh, Initial residual = 0.006473557, Final residual = 9.143367e-08, No Iterations 49
diagonal:  Solving for rho, Initial residual = 0, Final residual = 0, No Iterations 0
time step continuity errors (airRegion): sum local = 9.819182e-10, global = -8.368764e-11, cumulative = 0.07562809
DILUPBiCGStab:  Solving for epsilon, Initial residual = 0.01643249, Final residual = 7.528885e-07, No Iterations 3
DILUPBiCGStab:  Solving for k, Initial residual = 0.02997465, Final residual = 9.161518e-07, No Iterations 3

Solving for solid region panel
DICPCG:  Solving for h, Initial residual = 0.0297939, Final residual = 2.042867e-07, No Iterations 2
Min/max T:299.4369 300.058
ExecutionTime = 3.17 s  ClockTime = 3 s

Region: airRegion Courant Number mean: 0.1709885 max: 7.597706
Region: panel Diffusion Number mean: 0.02596034 max: 0.2481145
deltaT = 0.877193
Time = 13.1579

diagonal:  Solving for rho, Initial residual = 0, Final residual = 0, No Iterations 0
DILUPBiCGStab:  Solving for h, Initial residual = 0.01484785, Final residual = 4.471248e-07, No Iterations 4
Solving view factor equations for band : 0
Solving view factor equations for band : 1
Min/max T:299.2786 300.0843

Solving for fluid region airRegion
DICPCG:  Solving for p_rgh, Initial residual = 0.008269834, Final residual = 0.0003869498, No Iterations 11
diagonal:  Solving for rho, Initial residual = 0, Final residual = 0, No Iterations 0
time step continuity errors (airRegion): sum local = 4.111291e-06, global = 1.019649e-06, cumulative = 0.07562911
DICPCG:  Solving for p_rgh, Initial residual = 0.006122826, Final residual = 9.156844e-08, No Iterations 49
diagonal:  Solving for rho, Initial residual = 0, Final residual = 0, No Iterations 0
time step continuity errors (airRegion): sum local = 9.834674e-10, global = -8.347795e-11, cumulative = 0.07562911
DILUPBiCGStab:  Solving for epsilon, Initial residual = 0.01556027, Final residual = 7.364391e-07, No Iterations 3
DILUPBiCGStab:  Solving for k, Initial residual = 0.02847042, Final residual = 8.888464e-07, No Iterations 3

Solving for solid region panel
DICPCG:  Solving for h, Initial residual = 0.02793912, Final residual = 1.886097e-07, No Iterations 2
Min/max T:299.4792 300.0507
ExecutionTime = 3.35 s  ClockTime = 4 s

Region: airRegion Courant Number mean: 0.1711978 max: 7.361919
Region: panel Diffusion Number mean: 0.02596034 max: 0.2481145
deltaT = 0.877193
Time = 14.0351

diagonal:  Solving for rho, Initial residual = 0, Final residual = 0, No Iterations 0
DILUPBiCGStab:  Solving for h, Initial residual = 0.01534555, Final residual = 4.36094e-07, No Iterations 4
Solving view factor equations for band : 0
Solving view factor equations for band : 1
Min/max T:299.3166 300.073

Solving for fluid region airRegion
DICPCG:  Solving for p_rgh, Initial residual = 0.007550387, Final residual = 0.0003348379, No Iterations 12
diagonal:  Solving for rho, Initial residual = 0, Final residual = 0, No Iterations 0
time step continuity errors (airRegion): sum local = 3.562281e-06, global = 6.980425e-07, cumulative = 0.07562981
DICPCG:  Solving for p_rgh, Initial residual = 0.005859103, Final residual = 9.184683e-08, No Iterations 49
diagonal:  Solving for rho, Initial residual = 0, Final residual = 0, No Iterations 0
time step continuity errors (airRegion): sum local = 9.871762e-10, global = -8.414861e-11, cumulative = 0.07562981
DILUPBiCGStab:  Solving for epsilon, Initial residual = 0.01477918, Final residual = 7.081776e-07, No Iterations 3
DILUPBiCGStab:  Solving for k, Initial residual = 0.02696122, Final residual = 8.378316e-07, No Iterations 3

Solving for solid region panel
DICPCG:  Solving for h, Initial residual = 0.02615174, Final residual = 1.737021e-07, No Iterations 2
Min/max T:299.5163 300.0434
ExecutionTime = 3.52 s  ClockTime = 4 s

Region: airRegion Courant Number mean: 0.1715959 max: 7.119633
Region: panel Diffusion Number mean: 0.02596034 max: 0.2481145
deltaT = 0.877193
Time = 14.9123

diagonal:  Solving for rho, Initial residual = 0, Final residual = 0, No Iterations 0
DILUPBiCGStab:  Solving for h, Initial residual = 0.0158593, Final residual = 4.257101e-07, No Iterations 4
Solving view factor equations for band : 0
Solving view factor equations for band : 1
Min/max T:299.3529 300.0617

Solving for fluid region airRegion
DICPCG:  Solving for p_rgh, Initial residual = 0.007371671, Final residual = 0.0003204726, No Iterations 12
diagonal:  Solving for rho, Initial residual = 0, Final residual = 0, No Iterations 0
time step continuity errors (airRegion): sum local = 3.415261e-06, global = 6.811469e-07, cumulative = 0.07563049
DICPCG:  Solving for p_rgh, Initial residual = 0.00566398, Final residual = 9.122963e-08, No Iterations 49
diagonal:  Solving for rho, Initial residual = 0, Final residual = 0, No Iterations 0
time step continuity errors (airRegion): sum local = 9.844387e-10, global = -8.533871e-11, cumulative = 0.07563049
DILUPBiCGStab:  Solving for epsilon, Initial residual = 0.01384883, Final residual = 6.649994e-07, No Iterations 3
DILUPBiCGStab:  Solving for k, Initial residual = 0.02549431, Final residual = 7.916242e-07, No Iterations 3

Solving for solid region panel
DICPCG:  Solving for h, Initial residual = 0.02451213, Final residual = 1.600744e-07, No Iterations 2
Min/max T:299.5488 300.0364
ExecutionTime = 3.71 s  ClockTime = 4 s

Region: airRegion Courant Number mean: 0.1721566 max: 6.87805
Region: panel Diffusion Number mean: 0.02596034 max: 0.2481145
deltaT = 0.877193
Time = 15.7895

diagonal:  Solving for rho, Initial residual = 0, Final residual = 0, No Iterations 0
DILUPBiCGStab:  Solving for h, Initial residual = 0.01634441, Final residual = 4.156215e-07, No Iterations 4
Solving view factor equations for band : 0
Solving view factor equations for band : 1
Min/max T:299.377 300.0527

Solving for fluid region airRegion
DICPCG:  Solving for p_rgh, Initial residual = 0.006621235, Final residual = 0.0003019176, No Iterations 12
diagonal:  Solving for rho, Initial residual = 0, Final residual = 0, No Iterations 0
time step continuity errors (airRegion): sum local = 3.221748e-06, global = 6.625744e-07, cumulative = 0.07563115
DICPCG:  Solving for p_rgh, Initial residual = 0.005422655, Final residual = 9.063393e-08, No Iterations 49
diagonal:  Solving for rho, Initial residual = 0, Final residual = 0, No Iterations 0
time step continuity errors (airRegion): sum local = 9.79627e-10, global = -8.651246e-11, cumulative = 0.07563115
DILUPBiCGStab:  Solving for epsilon, Initial residual = 0.01297903, Final residual = 6.28139e-07, No Iterations 3
DILUPBiCGStab:  Solving for k, Initial residual = 0.0241202, Final residual = 7.466862e-07, No Iterations 3

Solving for solid region panel
DICPCG:  Solving for h, Initial residual = 0.02307095, Final residual = 1.478019e-07, No Iterations 2
Min/max T:299.5775 300.0322
ExecutionTime = 3.89 s  ClockTime = 4 s

Region: airRegion Courant Number mean: 0.1728372 max: 6.642236
Region: panel Diffusion Number mean: 0.02596034 max: 0.2481145
deltaT = 0.877193
Time = 16.6667

diagonal:  Solving for rho, Initial residual = 0, Final residual = 0, No Iterations 0
DILUPBiCGStab:  Solving for h, Initial residual = 0.01681404, Final residual = 4.047298e-07, No Iterations 4
Solving view factor equations for band : 0
Solving view factor equations for band : 1
Min/max T:299.4012 300.0526

Solving for fluid region airRegion
DICPCG:  Solving for p_rgh, Initial residual = 0.006285665, Final residual = 0.0003022218, No Iterations 12
diagonal:  Solving for rho, Initial residual = 0, Final residual = 0, No Iterations 0
time step continuity errors (airRegion): sum local = 3.232714e-06, global = 6.506368e-07, cumulative = 0.0756318
DICPCG:  Solving for p_rgh, Initial residual = 0.00526446, Final residual = 8.977528e-08, No Iterations 49
diagonal:  Solving for rho, Initial residual = 0, Final residual = 0, No Iterations 0
time step continuity errors (airRegion): sum local = 9.723478e-10, global = -8.752874e-11, cumulative = 0.0756318
DILUPBiCGStab:  Solving for epsilon, Initial residual = 0.0122166, Final residual = 5.944672e-07, No Iterations 3
DILUPBiCGStab:  Solving for k, Initial residual = 0.02289783, Final residual = 7.035481e-07, No Iterations 3

Solving for solid region panel
DICPCG:  Solving for h, Initial residual = 0.02181127, Final residual = 1.369106e-07, No Iterations 2
Min/max T:299.6029 300.0293
ExecutionTime = 4.06 s  ClockTime = 4 s

Region: airRegion Courant Number mean: 0.173622 max: 6.427136
Region: panel Diffusion Number mean: 0.02596034 max: 0.2481145
deltaT = 0.877193
Time = 17.5439

diagonal:  Solving for rho, Initial residual = 0, Final residual = 0, No Iterations 0
DILUPBiCGStab:  Solving for h, Initial residual = 0.01726034, Final residual = 3.94126e-07, No Iterations 4
Solving view factor equations for band : 0
Solving view factor equations for band : 1
Min/max T:299.4252 300.0525

Solving for fluid region airRegion
DICPCG:  Solving for p_rgh, Initial residual = 0.006224757, Final residual = 0.0002894074, No Iterations 12
diagonal:  Solving for rho, Initial residual = 0, Final residual = 0, No Iterations 0
time step continuity errors (airRegion): sum local = 3.105393e-06, global = 6.72289e-07, cumulative = 0.07563247
DICPCG:  Solving for p_rgh, Initial residual = 0.005138927, Final residual = 8.951304e-08, No Iterations 49
diagonal:  Solving for rho, Initial residual = 0, Final residual = 0, No Iterations 0
time step continuity errors (airRegion): sum local = 9.735391e-10, global = -8.852009e-11, cumulative = 0.07563247
DILUPBiCGStab:  Solving for epsilon, Initial residual = 0.01151277, Final residual = 5.584809e-07, No Iterations 3
DILUPBiCGStab:  Solving for k, Initial residual = 0.02169579, Final residual = 6.568639e-07, No Iterations 3

Solving for solid region panel
DICPCG:  Solving for h, Initial residual = 0.02069203, Final residual = 1.271998e-07, No Iterations 2
Min/max T:299.6252 300.0263
ExecutionTime = 4.24 s  ClockTime = 5 s

Region: airRegion Courant Number mean: 0.1744981 max: 6.335821
Region: panel Diffusion Number mean: 0.02596034 max: 0.2481145
deltaT = 0.877193
Time = 18.4211

diagonal:  Solving for rho, Initial residual = 0, Final residual = 0, No Iterations 0
DILUPBiCGStab:  Solving for h, Initial residual = 0.0176764, Final residual = 3.83988e-07, No Iterations 4
Solving view factor equations for band : 0
Solving view factor equations for band : 1
Min/max T:299.4488 300.0524

Solving for fluid region airRegion
DICPCG:  Solving for p_rgh, Initial residual = 0.005564107, Final residual = 0.0002759718, No Iterations 12
diagonal:  Solving for rho, Initial residual = 0, Final residual = 0, No Iterations 0
time step continuity errors (airRegion): sum local = 2.973503e-06, global = 6.460096e-07, cumulative = 0.07563312
DICPCG:  Solving for p_rgh, Initial residual = 0.004952911, Final residual = 8.842264e-08, No Iterations 49
diagonal:  Solving for rho, Initial residual = 0, Final residual = 0, No Iterations 0
time step continuity errors (airRegion): sum local = 9.649202e-10, global = -8.755655e-11, cumulative = 0.07563312
DILUPBiCGStab:  Solving for epsilon, Initial residual = 0.01082165, Final residual = 5.174274e-07, No Iterations 3
DILUPBiCGStab:  Solving for k, Initial residual = 0.02049425, Final residual = 6.049871e-07, No Iterations 3

Solving for solid region panel
DICPCG:  Solving for h, Initial residual = 0.01969602, Final residual = 1.186131e-07, No Iterations 2
Min/max T:299.6451 300.0233
ExecutionTime = 4.41 s  ClockTime = 5 s

Region: airRegion Courant Number mean: 0.1754505 max: 6.245593
Region: panel Diffusion Number mean: 0.02596034 max: 0.2481145
deltaT = 0.877193
Time = 19.2982

diagonal:  Solving for rho, Initial residual = 0, Final residual = 0, No Iterations 0
DILUPBiCGStab:  Solving for h, Initial residual = 0.01807447, Final residual = 3.756698e-07, No Iterations 4
Solving view factor equations for band : 0
Solving view factor equations for band : 1
Min/max T:299.4717 300.0523

Solving for fluid region airRegion
DICPCG:  Solving for p_rgh, Initial residual = 0.005421791, Final residual = 0.0002503842, No Iterations 13
diagonal:  Solving for rho, Initial residual = 0, Final residual = 0, No Iterations 0
time step continuity errors (airRegion): sum local = 2.708558e-06, global = 4.426183e-07, cumulative = 0.07563356
DICPCG:  Solving for p_rgh, Initial residual = 0.004773952, Final residual = 8.67829e-08, No Iterations 49
diagonal:  Solving for rho, Initial residual = 0, Final residual = 0, No Iterations 0
time step continuity errors (airRegion): sum local = 9.525201e-10, global = -8.786556e-11, cumulative = 0.07563356
DILUPBiCGStab:  Solving for epsilon, Initial residual = 0.01023533, Final residual = 4.885699e-07, No Iterations 3
DILUPBiCGStab:  Solving for k, Initial residual = 0.01949412, Final residual = 5.657831e-07, No Iterations 3

Solving for solid region panel
DICPCG:  Solving for h, Initial residual = 0.01880648, Final residual = 1.107424e-07, No Iterations 2
Min/max T:299.6626 300.0203
ExecutionTime = 4.58 s  ClockTime = 5 s

Region: airRegion Courant Number mean: 0.1764678 max: 6.157417
Region: panel Diffusion Number mean: 0.02596034 max: 0.2481145
deltaT = 0.877193
Time = 20.1754

diagonal:  Solving for rho, Initial residual = 0, Final residual = 0, No Iterations 0
DILUPBiCGStab:  Solving for h, Initial residual = 0.01844432, Final residual = 3.652346e-07, No Iterations 4
Solving view factor equations for band : 0
Solving view factor equations for band : 1
Min/max T:299.4938 300.0521

Solving for fluid region airRegion
DICPCG:  Solving for p_rgh, Initial residual = 0.005030257, Final residual = 0.0002270709, No Iterations 14
diagonal:  Solving for rho, Initial residual = 0, Final residual = 0, No Iterations 0
time step continuity errors (airRegion): sum local = 2.467946e-06, global = 2.422172e-07, cumulative = 0.0756338
DICPCG:  Solving for p_rgh, Initial residual = 0.004619078, Final residual = 8.60985e-08, No Iterations 49
diagonal:  Solving for rho, Initial residual = 0, Final residual = 0, No Iterations 0
time step continuity errors (airRegion): sum local = 9.516765e-10, global = -8.98144e-11, cumulative = 0.0756338
DILUPBiCGStab:  Solving for epsilon, Initial residual = 0.009733311, Final residual = 4.628281e-07, No Iterations 3
DILUPBiCGStab:  Solving for k, Initial residual = 0.01854996, Final residual = 5.316876e-07, No Iterations 3

Solving for solid region panel
DICPCG:  Solving for h, Initial residual = 0.01801017, Final residual = 1.034426e-07, No Iterations 2
Min/max T:299.6782 300.0172
ExecutionTime = 4.76 s  ClockTime = 5 s

Region: airRegion Courant Number mean: 0.1775395 max: 6.072233
Region: panel Diffusion Number mean: 0.02596034 max: 0.2481145
deltaT = 0.877193
Time = 21.0526

diagonal:  Solving for rho, Initial residual = 0, Final residual = 0, No Iterations 0
DILUPBiCGStab:  Solving for h, Initial residual = 0.01878642, Final residual = 3.571495e-07, No Iterations 4
Solving view factor equations for band : 0
Solving view factor equations for band : 1
Min/max T:299.515 300.052

Solving for fluid region airRegion
DICPCG:  Solving for p_rgh, Initial residual = 0.005563081, Final residual = 0.0002715269, No Iterations 12
diagonal:  Solving for rho, Initial residual = 0, Final residual = 0, No Iterations 0
time step continuity errors (airRegion): sum local = 2.967477e-06, global = 6.259069e-07, cumulative = 0.07563443
DICPCG:  Solving for p_rgh, Initial residual = 0.004653468, Final residual = 8.593507e-08, No Iterations 49
diagonal:  Solving for rho, Initial residual = 0, Final residual = 0, No Iterations 0
time step continuity errors (airRegion): sum local = 9.531695e-10, global = -8.868418e-11, cumulative = 0.07563443
DILUPBiCGStab:  Solving for epsilon, Initial residual = 0.009203802, Final residual = 4.273669e-07, No Iterations 3
DILUPBiCGStab:  Solving for k, Initial residual = 0.01756944, Final residual = 4.916762e-07, No Iterations 3

Solving for solid region panel
DICPCG:  Solving for h, Initial residual = 0.01730056, Final residual = 9.665654e-08, No Iterations 2
Min/max T:299.6921 300.0155
ExecutionTime = 4.93 s  ClockTime = 5 s

Region: airRegion Courant Number mean: 0.1786621 max: 5.9908
Region: panel Diffusion Number mean: 0.02596034 max: 0.2481145
deltaT = 0.877193
Time = 21.9298

diagonal:  Solving for rho, Initial residual = 0, Final residual = 0, No Iterations 0
DILUPBiCGStab:  Solving for h, Initial residual = 0.01913077, Final residual = 3.538969e-07, No Iterations 4
Solving view factor equations for band : 0
Solving view factor equations for band : 1
Min/max T:299.5353 300.0518

Solving for fluid region airRegion
DICPCG:  Solving for p_rgh, Initial residual = 0.005050917, Final residual = 0.0002469579, No Iterations 12
diagonal:  Solving for rho, Initial residual = 0, Final residual = 0, No Iterations 0
time step continuity errors (airRegion): sum local = 2.718423e-06, global = 6.351988e-07, cumulative = 0.07563506
DICPCG:  Solving for p_rgh, Initial residual = 0.004464419, Final residual = 8.431369e-08, No Iterations 49
diagonal:  Solving for rho, Initial residual = 0, Final residual = 0, No Iterations 0
time step continuity errors (airRegion): sum local = 9.411326e-10, global = -8.697938e-11, cumulative = 0.07563506
DILUPBiCGStab:  Solving for epsilon, Initial residual = 0.008779717, Final residual = 4.033227e-07, No Iterations 3
DILUPBiCGStab:  Solving for k, Initial residual = 0.01681375, Final residual = 4.481343e-07, No Iterations 3

Solving for solid region panel
DICPCG:  Solving for h, Initial residual = 0.01666044, Final residual = 9.029647e-08, No Iterations 2
Min/max T:299.7044 300.014
ExecutionTime = 5.1 s  ClockTime = 5 s

Region: airRegion Courant Number mean: 0.1798236 max: 5.913136
Region: panel Diffusion Number mean: 0.02596034 max: 0.2481145
deltaT = 0.877193
Time = 22.807

diagonal:  Solving for rho, Initial residual = 0, Final residual = 0, No Iterations 0
DILUPBiCGStab:  Solving for h, Initial residual = 0.0194389, Final residual = 3.439901e-07, No Iterations 4
Solving view factor equations for band : 0
Solving view factor equations for band : 1
Min/max T:299.5546 300.0516

Solving for fluid region airRegion
DICPCG:  Solving for p_rgh, Initial residual = 0.00537171, Final residual = 0.0002501281, No Iterations 12
diagonal:  Solving for rho, Initial residual = 0, Final residual = 0, No Iterations 0
time step continuity errors (airRegion): sum local = 2.768384e-06, global = 6.31231e-07, cumulative = 0.07563569
DICPCG:  Solving for p_rgh, Initial residual = 0.004397903, Final residual = 8.305051e-08, No Iterations 49
diagonal:  Solving for rho, Initial residual = 0, Final residual = 0, No Iterations 0
time step continuity errors (airRegion): sum local = 9.32797e-10, global = -8.587104e-11, cumulative = 0.07563569
DILUPBiCGStab:  Solving for epsilon, Initial residual = 0.008377418, Final residual = 3.809782e-07, No Iterations 3
DILUPBiCGStab:  Solving for k, Initial residual = 0.01601417, Final residual = 9.598677e-07, No Iterations 3

Solving for solid region panel
DICPCG:  Solving for h, Initial residual = 0.01607544, Final residual = 8.429463e-08, No Iterations 2
Min/max T:299.7154 300.0125
ExecutionTime = 5.27 s  ClockTime = 6 s

Region: airRegion Courant Number mean: 0.1810107 max: 5.839475
Region: panel Diffusion Number mean: 0.02596034 max: 0.2481145
deltaT = 0.877193
Time = 23.6842

diagonal:  Solving for rho, Initial residual = 0, Final residual = 0, No Iterations 0
DILUPBiCGStab:  Solving for h, Initial residual = 0.01973993, Final residual = 3.421304e-07, No Iterations 4
Solving view factor equations for band : 0
Solving view factor equations for band : 1
Min/max T:299.5729 300.0515

Solving for fluid region airRegion
DICPCG:  Solving for p_rgh, Initial residual = 0.005419218, Final residual = 0.0002502864, No Iterations 12
diagonal:  Solving for rho, Initial residual = 0, Final residual = 0, No Iterations 0
time step continuity errors (airRegion): sum local = 2.788274e-06, global = 6.231361e-07, cumulative = 0.07563632
DICPCG:  Solving for p_rgh, Initial residual = 0.00435044, Final residual = 8.286952e-08, No Iterations 49
diagonal:  Solving for rho, Initial residual = 0, Final residual = 0, No Iterations 0
time step continuity errors (airRegion): sum local = 9.368879e-10, global = -8.685035e-11, cumulative = 0.07563632
DILUPBiCGStab:  Solving for epsilon, Initial residual = 0.007998378, Final residual = 9.611529e-07, No Iterations 2
DILUPBiCGStab:  Solving for k, Initial residual = 0.01529399, Final residual = 9.060896e-07, No Iterations 3

Solving for solid region panel
DICPCG:  Solving for h, Initial residual = 0.01553985, Final residual = 7.864367e-08, No Iterations 2
Min/max T:299.7252 300.0109
ExecutionTime = 5.45 s  ClockTime = 6 s

Region: airRegion Courant Number mean: 0.1822204 max: 5.769682
Region: panel Diffusion Number mean: 0.02596034 max: 0.2481145
deltaT = 0.877193
Time = 24.5614

diagonal:  Solving for rho, Initial residual = 0, Final residual = 0, No Iterations 0
DILUPBiCGStab:  Solving for h, Initial residual = 0.02001571, Final residual = 3.344043e-07, No Iterations 4
Solving view factor equations for band : 0
Solving view factor equations for band : 1
Min/max T:299.5901 300.0513

Solving for fluid region airRegion
DICPCG:  Solving for p_rgh, Initial residual = 0.005712, Final residual = 0.0002426442, No Iterations 12
diagonal:  Solving for rho, Initial residual = 0, Final residual = 0, No Iterations 0
time step continuity errors (airRegion): sum local = 2.720905e-06, global = 6.207818e-07, cumulative = 0.07563694
DICPCG:  Solving for p_rgh, Initial residual = 0.004258034, Final residual = 8.095857e-08, No Iterations 49
diagonal:  Solving for rho, Initial residual = 0, Final residual = 0, No Iterations 0
time step continuity errors (airRegion): sum local = 9.228459e-10, global = -8.486522e-11, cumulative = 0.07563694
DILUPBiCGStab:  Solving for epsilon, Initial residual = 0.007614621, Final residual = 9.081689e-07, No Iterations 2
DILUPBiCGStab:  Solving for k, Initial residual = 0.01458498, Final residual = 8.461533e-07, No Iterations 3

Solving for solid region panel
DICPCG:  Solving for h, Initial residual = 0.01505126, Final residual = 7.328083e-08, No Iterations 2
Min/max T:299.734 300.0093
ExecutionTime = 5.64 s  ClockTime = 6 s

Region: airRegion Courant Number mean: 0.1834409 max: 5.70414
Region: panel Diffusion Number mean: 0.02596034 max: 0.2481145
deltaT = 0.877193
Time = 25.4386

diagonal:  Solving for rho, Initial residual = 0, Final residual = 0, No Iterations 0
DILUPBiCGStab:  Solving for h, Initial residual = 0.02023115, Final residual = 3.233993e-07, No Iterations 4
Solving view factor equations for band : 0
Solving view factor equations for band : 1
Min/max T:299.6064 300.0512

Solving for fluid region airRegion
DICPCG:  Solving for p_rgh, Initial residual = 0.005394287, Final residual = 0.0002346189, No Iterations 12
diagonal:  Solving for rho, Initial residual = 0, Final residual = 0, No Iterations 0
time step continuity errors (airRegion): sum local = 2.651388e-06, global = 6.041791e-07, cumulative = 0.07563754
DICPCG:  Solving for p_rgh, Initial residual = 0.004125894, Final residual = 7.942852e-08, No Iterations 49
diagonal:  Solving for rho, Initial residual = 0, Final residual = 0, No Iterations 0
time step continuity errors (airRegion): sum local = 9.128627e-10, global = -8.475688e-11, cumulative = 0.07563754
DILUPBiCGStab:  Solving for epsilon, Initial residual = 0.007363746, Final residual = 8.800661e-07, No Iterations 2
DILUPBiCGStab:  Solving for k, Initial residual = 0.01395055, Final residual = 8.043837e-07, No Iterations 3

Solving for solid region panel
DICPCG:  Solving for h, Initial residual = 0.0146036, Final residual = 6.822149e-08, No Iterations 2
Min/max T:299.7418 300.0076
ExecutionTime = 5.82 s  ClockTime = 6 s

Region: airRegion Courant Number mean: 0.1846732 max: 5.64279
Region: panel Diffusion Number mean: 0.02596034 max: 0.2481145
deltaT = 0.877193
Time = 26.3158

diagonal:  Solving for rho, Initial residual = 0, Final residual = 0, No Iterations 0
DILUPBiCGStab:  Solving for h, Initial residual = 0.0204853, Final residual = 3.256181e-07, No Iterations 4
Solving view factor equations for band : 0
Solving view factor equations for band : 1
Min/max T:299.6216 300.051

Solving for fluid region airRegion
DICPCG:  Solving for p_rgh, Initial residual = 0.006412416, Final residual = 0.0002815207, No Iterations 11
diagonal:  Solving for rho, Initial residual = 0, Final residual = 0, No Iterations 0
time step continuity errors (airRegion): sum local = 3.203282e-06, global = 8.124709e-07, cumulative = 0.07563836
DICPCG:  Solving for p_rgh, Initial residual = 0.004237925, Final residual = 7.810935e-08, No Iterations 49
diagonal:  Solving for rho, Initial residual = 0, Final residual = 0, No Iterations 0
time step continuity errors (airRegion): sum local = 9.035985e-10, global = -8.339586e-11, cumulative = 0.07563835
DILUPBiCGStab:  Solving for epsilon, Initial residual = 0.007002526, Final residual = 8.332746e-07, No Iterations 2
DILUPBiCGStab:  Solving for k, Initial residual = 0.01330909, Final residual = 7.479883e-07, No Iterations 3

Solving for solid region panel
DICPCG:  Solving for h, Initial residual = 0.01419144, Final residual = 6.343365e-08, No Iterations 2
Min/max T:299.7487 300.006
ExecutionTime = 5.99 s  ClockTime = 6 s

Region: airRegion Courant Number mean: 0.1859018 max: 5.585381
Region: panel Diffusion Number mean: 0.02596034 max: 0.2481145
deltaT = 0.877193
Time = 27.193

diagonal:  Solving for rho, Initial residual = 0, Final residual = 0, No Iterations 0
DILUPBiCGStab:  Solving for h, Initial residual = 0.02062468, Final residual = 3.176242e-07, No Iterations 4
Solving view factor equations for band : 0
Solving view factor equations for band : 1
Min/max T:299.6359 300.0509

Solving for fluid region airRegion
DICPCG:  Solving for p_rgh, Initial residual = 0.006395435, Final residual = 0.000267819, No Iterations 11
diagonal:  Solving for rho, Initial residual = 0, Final residual = 0, No Iterations 0
time step continuity errors (airRegion): sum local = 3.074251e-06, global = 7.886697e-07, cumulative = 0.07563914
DICPCG:  Solving for p_rgh, Initial residual = 0.004032736, Final residual = 7.540721e-08, No Iterations 49
diagonal:  Solving for rho, Initial residual = 0, Final residual = 0, No Iterations 0
time step continuity errors (airRegion): sum local = 8.80679e-10, global = -7.872688e-11, cumulative = 0.07563914
DILUPBiCGStab:  Solving for epsilon, Initial residual = 0.006708926, Final residual = 7.880686e-07, No Iterations 2
DILUPBiCGStab:  Solving for k, Initial residual = 0.01272838, Final residual = 7.019167e-07, No Iterations 3

Solving for solid region panel
DICPCG:  Solving for h, Initial residual = 0.01381026, Final residual = 5.894377e-08, No Iterations 2
Min/max T:299.755 300.0055
ExecutionTime = 6.15 s  ClockTime = 6 s

Region: airRegion Courant Number mean: 0.18713 max: 5.531643
Region: panel Diffusion Number mean: 0.02596034 max: 0.2481145
deltaT = 0.877193
Time = 28.0702

diagonal:  Solving for rho, Initial residual = 0, Final residual = 0, No Iterations 0
DILUPBiCGStab:  Solving for h, Initial residual = 0.02076091, Final residual = 3.110447e-07, No Iterations 4
Solving view factor equations for band : 0
Solving view factor equations for band : 1
Min/max T:299.6493 300.0507

Solving for fluid region airRegion
DICPCG:  Solving for p_rgh, Initial residual = 0.006030949, Final residual = 0.0002764315, No Iterations 11
diagonal:  Solving for rho, Initial residual = 0, Final residual = 0, No Iterations 0
time step continuity errors (airRegion): sum local = 3.199103e-06, global = 8.019999e-07, cumulative = 0.07563995
DICPCG:  Solving for p_rgh, Initial residual = 0.003965333, Final residual = 7.399228e-08, No Iterations 49
diagonal:  Solving for rho, Initial residual = 0, Final residual = 0, No Iterations 0
time step continuity errors (airRegion): sum local = 8.70762e-10, global = -8.028903e-11, cumulative = 0.07563995
DILUPBiCGStab:  Solving for epsilon, Initial residual = 0.006420525, Final residual = 7.446474e-07, No Iterations 2
DILUPBiCGStab:  Solving for k, Initial residual = 0.01216532, Final residual = 6.603371e-07, No Iterations 3

Solving for solid region panel
DICPCG:  Solving for h, Initial residual = 0.01345773, Final residual = 5.483733e-08, No Iterations 2
Min/max T:299.7606 300.0049
ExecutionTime = 6.32 s  ClockTime = 7 s

Region: airRegion Courant Number mean: 0.1883486 max: 5.481501
Region: panel Diffusion Number mean: 0.02596034 max: 0.2481145
deltaT = 0.877193
Time = 28.9474

diagonal:  Solving for rho, Initial residual = 0, Final residual = 0, No Iterations 0
DILUPBiCGStab:  Solving for h, Initial residual = 0.02082981, Final residual = 2.997756e-07, No Iterations 4
Solving view factor equations for band : 0
Solving view factor equations for band : 1
Min/max T:299.6617 300.0505

Solving for fluid region airRegion
DICPCG:  Solving for p_rgh, Initial residual = 0.005382949, Final residual = 0.0002644609, No Iterations 11
diagonal:  Solving for rho, Initial residual = 0, Final residual = 0, No Iterations 0
time step continuity errors (airRegion): sum local = 3.087551e-06, global = 7.267472e-07, cumulative = 0.07564067
DICPCG:  Solving for p_rgh, Initial residual = 0.003810058, Final residual = 9.957616e-08, No Iterations 48
diagonal:  Solving for rho, Initial residual = 0, Final residual = 0, No Iterations 0
time step continuity errors (airRegion): sum local = 1.176414e-09, global = -1.194277e-10, cumulative = 0.07564067
DILUPBiCGStab:  Solving for epsilon, Initial residual = 0.006186948, Final residual = 7.197102e-07, No Iterations 2
DILUPBiCGStab:  Solving for k, Initial residual = 0.01163073, Final residual = 6.350293e-07, No Iterations 3

Solving for solid region panel
DICPCG:  Solving for h, Initial residual = 0.01313198, Final residual = 5.171166e-08, No Iterations 2
Min/max T:299.7655 300.0043
ExecutionTime = 6.49 s  ClockTime = 7 s

Region: airRegion Courant Number mean: 0.189565 max: 5.449068
Region: panel Diffusion Number mean: 0.02596034 max: 0.2481145
deltaT = 0.877193
Time = 29.8246

diagonal:  Solving for rho, Initial residual = 0, Final residual = 0, No Iterations 0
DILUPBiCGStab:  Solving for h, Initial residual = 0.02092327, Final residual = 2.96752e-07, No Iterations 4
Solving view factor equations for band : 0
Solving view factor equations for band : 1
Min/max T:299.6733 300.0503

Solving for fluid region airRegion
DICPCG:  Solving for p_rgh, Initial residual = 0.005694424, Final residual = 0.0002726401, No Iterations 11
diagonal:  Solving for rho, Initial residual = 0, Final residual = 0, No Iterations 0
time step continuity errors (airRegion): sum local = 3.20941e-06, global = 7.484406e-07, cumulative = 0.07564142
DICPCG:  Solving for p_rgh, Initial residual = 0.003776955, Final residual = 9.815923e-08, No Iterations 48
diagonal:  Solving for rho, Initial residual = 0, Final residual = 0, No Iterations 0
time step continuity errors (airRegion): sum local = 1.168806e-09, global = -1.173451e-10, cumulative = 0.07564142
DILUPBiCGStab:  Solving for epsilon, Initial residual = 0.006012756, Final residual = 6.951819e-07, No Iterations 2
DILUPBiCGStab:  Solving for k, Initial residual = 0.01119138, Final residual = 6.05911e-07, No Iterations 3

Solving for solid region panel
DICPCG:  Solving for h, Initial residual = 0.01283012, Final residual = 4.893204e-08, No Iterations 2
Min/max T:299.77 300.0037
ExecutionTime = 6.66 s  ClockTime = 7 s

Region: airRegion Courant Number mean: 0.1907687 max: 5.426784
Region: panel Diffusion Number mean: 0.02596034 max: 0.2481145
deltaT = 0.877193
Time = 30.7018

diagonal:  Solving for rho, Initial residual = 0, Final residual = 0, No Iterations 0
DILUPBiCGStab:  Solving for h, Initial residual = 0.02099109, Final residual = 2.944535e-07, No Iterations 4
Solving view factor equations for band : 0
Solving view factor equations for band : 1
Min/max T:299.6841 300.0501

Solving for fluid region airRegion
DICPCG:  Solving for p_rgh, Initial residual = 0.006212331, Final residual = 0.0002634828, No Iterations 11
diagonal:  Solving for rho, Initial residual = 0, Final residual = 0, No Iterations 0
time step continuity errors (airRegion): sum local = 3.126593e-06, global = 7.445021e-07, cumulative = 0.07564216
DICPCG:  Solving for p_rgh, Initial residual = 0.003715538, Final residual = 9.687816e-08, No Iterations 48
diagonal:  Solving for rho, Initial residual = 0, Final residual = 0, No Iterations 0
time step continuity errors (airRegion): sum local = 1.163307e-09, global = -1.186777e-10, cumulative = 0.07564216
DILUPBiCGStab:  Solving for epsilon, Initial residual = 0.005921165, Final residual = 6.810138e-07, No Iterations 2
DILUPBiCGStab:  Solving for k, Initial residual = 0.01085401, Final residual = 5.831123e-07, No Iterations 3

Solving for solid region panel
DICPCG:  Solving for h, Initial residual = 0.01254952, Final residual = 4.65118e-08, No Iterations 2
Min/max T:299.774 300.0031
ExecutionTime = 6.83 s  ClockTime = 7 s

Region: airRegion Courant Number mean: 0.1919597 max: 5.407326
Region: panel Diffusion Number mean: 0.02596034 max: 0.2481145
deltaT = 0.877193
Time = 31.5789

diagonal:  Solving for rho, Initial residual = 0, Final residual = 0, No Iterations 0
DILUPBiCGStab:  Solving for h, Initial residual = 0.02108644, Final residual = 2.957615e-07, No Iterations 4
Solving view factor equations for band : 0
Solving view factor equations for band : 1
Min/max T:299.6941 300.0499

Solving for fluid region airRegion
DICPCG:  Solving for p_rgh, Initial residual = 0.007350755, Final residual = 0.0003649038, No Iterations 10
diagonal:  Solving for rho, Initial residual = 0, Final residual = 0, No Iterations 0
time step continuity errors (airRegion): sum local = 4.363961e-06, global = 9.355815e-07, cumulative = 0.0756431
DICPCG:  Solving for p_rgh, Initial residual = 0.003772584, Final residual = 9.888248e-08, No Iterations 48
diagonal:  Solving for rho, Initial residual = 0, Final residual = 0, No Iterations 0
time step continuity errors (airRegion): sum local = 1.194301e-09, global = -1.158459e-10, cumulative = 0.0756431
DILUPBiCGStab:  Solving for epsilon, Initial residual = 0.005689691, Final residual = 6.41381e-07, No Iterations 2
DILUPBiCGStab:  Solving for k, Initial residual = 0.01044166, Final residual = 5.503922e-07, No Iterations 3

Solving for solid region panel
DICPCG:  Solving for h, Initial residual = 0.0122892, Final residual = 4.446444e-08, No Iterations 2
Min/max T:299.7775 300.0025
ExecutionTime = 7.01 s  ClockTime = 7 s

Region: airRegion Courant Number mean: 0.1931371 max: 5.39067
Region: panel Diffusion Number mean: 0.02596034 max: 0.2481145
deltaT = 0.877193
Time = 32.4561

diagonal:  Solving for rho, Initial residual = 0, Final residual = 0, No Iterations 0
DILUPBiCGStab:  Solving for h, Initial residual = 0.02104627, Final residual = 2.856195e-07, No Iterations 4
Solving view factor equations for band : 0
Solving view factor equations for band : 1
Min/max T:299.7034 300.0498

Solving for fluid region airRegion
DICPCG:  Solving for p_rgh, Initial residual = 0.007277754, Final residual = 0.000344901, No Iterations 10
diagonal:  Solving for rho, Initial residual = 0, Final residual = 0, No Iterations 0
time step continuity errors (airRegion): sum local = 4.162021e-06, global = 9.379586e-07, cumulative = 0.07564404
DICPCG:  Solving for p_rgh, Initial residual = 0.003653296, Final residual = 9.528804e-08, No Iterations 48
diagonal:  Solving for rho, Initial residual = 0, Final residual = 0, No Iterations 0
time step continuity errors (airRegion): sum local = 1.163606e-09, global = -1.167057e-10, cumulative = 0.07564404
DILUPBiCGStab:  Solving for epsilon, Initial residual = 0.005557734, Final residual = 6.250526e-07, No Iterations 2
DILUPBiCGStab:  Solving for k, Initial residual = 0.01005204, Final residual = 5.279378e-07, No Iterations 3

Solving for solid region panel
DICPCG:  Solving for h, Initial residual = 0.01204812, Final residual = 4.273772e-08, No Iterations 2
Min/max T:299.7807 300.0022
ExecutionTime = 7.17 s  ClockTime = 7 s

Region: airRegion Courant Number mean: 0.194306 max: 5.376784
Region: panel Diffusion Number mean: 0.02596034 max: 0.2481145
deltaT = 0.877193
Time = 33.3333

diagonal:  Solving for rho, Initial residual = 0, Final residual = 0, No Iterations 0
DILUPBiCGStab:  Solving for h, Initial residual = 0.02106378, Final residual = 2.831057e-07, No Iterations 4
Solving view factor equations for band : 0
Solving view factor equations for band : 1
Min/max T:299.712 300.0496

Solving for fluid region airRegion
DICPCG:  Solving for p_rgh, Initial residual = 0.007452133, Final residual = 0.0003352158, No Iterations 10
diagonal:  Solving for rho, Initial residual = 0, Final residual = 0, No Iterations 0
time step continuity errors (airRegion): sum local = 4.07803e-06, global = 8.755965e-07, cumulative = 0.07564491
DICPCG:  Solving for p_rgh, Initial residual = 0.003659042, Final residual = 9.236503e-08, No Iterations 48
diagonal:  Solving for rho, Initial residual = 0, Final residual = 0, No Iterations 0
time step continuity errors (airRegion): sum local = 1.136132e-09, global = -1.091325e-10, cumulative = 0.07564491
DILUPBiCGStab:  Solving for epsilon, Initial residual = 0.005335507, Final residual = 5.896463e-07, No Iterations 2
DILUPBiCGStab:  Solving for k, Initial residual = 0.009605956, Final residual = 4.9521e-07, No Iterations 3

Solving for solid region panel
DICPCG:  Solving for h, Initial residual = 0.01182713, Final residual = 4.124734e-08, No Iterations 2
Min/max T:299.7835 300.0019
ExecutionTime = 7.34 s  ClockTime = 8 s

Region: airRegion Courant Number mean: 0.1954481 max: 5.374032
Region: panel Diffusion Number mean: 0.02596034 max: 0.2481145
deltaT = 0.877193
Time = 34.2105

diagonal:  Solving for rho, Initial residual = 0, Final residual = 0, No Iterations 0
DILUPBiCGStab:  Solving for h, Initial residual = 0.02099158, Final residual = 9.967182e-07, No Iterations 3
Solving view factor equations for band : 0
Solving view factor equations for band : 1
Min/max T:299.7199 300.0494

Solving for fluid region airRegion
DICPCG:  Solving for p_rgh, Initial residual = 0.007231063, Final residual = 0.000346872, No Iterations 10
diagonal:  Solving for rho, Initial residual = 0, Final residual = 0, No Iterations 0
time step continuity errors (airRegion): sum local = 4.254253e-06, global = 9.15477e-07, cumulative = 0.07564583
DICPCG:  Solving for p_rgh, Initial residual = 0.003520068, Final residual = 9.098858e-08, No Iterations 48
diagonal:  Solving for rho, Initial residual = 0, Final residual = 0, No Iterations 0
time step continuity errors (airRegion): sum local = 1.129667e-09, global = -1.111359e-10, cumulative = 0.07564583
DILUPBiCGStab:  Solving for epsilon, Initial residual = 0.00525766, Final residual = 5.759117e-07, No Iterations 2
DILUPBiCGStab:  Solving for k, Initial residual = 0.009309668, Final residual = 4.743916e-07, No Iterations 3

Solving for solid region panel
DICPCG:  Solving for h, Initial residual = 0.01162539, Final residual = 3.98942e-08, No Iterations 2
Min/max T:299.786 300.0016
ExecutionTime = 7.52 s  ClockTime = 8 s

Region: airRegion Courant Number mean: 0.196573 max: 5.371799
Region: panel Diffusion Number mean: 0.02596034 max: 0.2481145
deltaT = 0.877193
Time = 35.0877

diagonal:  Solving for rho, Initial residual = 0, Final residual = 0, No Iterations 0
DILUPBiCGStab:  Solving for h, Initial residual = 0.02094433, Final residual = 9.856531e-07, No Iterations 3
Solving view factor equations for band : 0
Solving view factor equations for band : 1
Min/max T:299.7272 300.0492

Solving for fluid region airRegion
DICPCG:  Solving for p_rgh, Initial residual = 0.007047542, Final residual = 0.0003457775, No Iterations 10
diagonal:  Solving for rho, Initial residual = 0, Final residual = 0, No Iterations 0
time step continuity errors (airRegion): sum local = 4.276914e-06, global = 8.636709e-07, cumulative = 0.07564669
DICPCG:  Solving for p_rgh, Initial residual = 0.00345558, Final residual = 8.830138e-08, No Iterations 48
diagonal:  Solving for rho, Initial residual = 0, Final residual = 0, No Iterations 0
time step continuity errors (airRegion): sum local = 1.104846e-09, global = -1.11038e-10, cumulative = 0.07564669
DILUPBiCGStab:  Solving for epsilon, Initial residual = 0.005563932, Final residual = 6.150714e-07, No Iterations 2
DILUPBiCGStab:  Solving for k, Initial residual = 0.009381936, Final residual = 4.77802e-07, No Iterations 3

Solving for solid region panel
DICPCG:  Solving for h, Initial residual = 0.01143931, Final residual = 3.871578e-08, No Iterations 2
Min/max T:299.7882 300.0013
ExecutionTime = 7.7 s  ClockTime = 8 s

Region: airRegion Courant Number mean: 0.1976707 max: 5.37
Region: panel Diffusion Number mean: 0.02596034 max: 0.2481145
deltaT = 0.877193
Time = 35.9649

diagonal:  Solving for rho, Initial residual = 0, Final residual = 0, No Iterations 0
DILUPBiCGStab:  Solving for h, Initial residual = 0.02093754, Final residual = 2.725929e-07, No Iterations 4
Solving view factor equations for band : 0
Solving view factor equations for band : 1
Min/max T:299.7339 300.049

Solving for fluid region airRegion
DICPCG:  Solving for p_rgh, Initial residual = 0.00677818, Final residual = 0.0002844563, No Iterations 11
diagonal:  Solving for rho, Initial residual = 0, Final residual = 0, No Iterations 0
time step continuity errors (airRegion): sum local = 3.553082e-06, global = 7.160505e-07, cumulative = 0.07564741
DICPCG:  Solving for p_rgh, Initial residual = 0.003375878, Final residual = 8.513882e-08, No Iterations 48
diagonal:  Solving for rho, Initial residual = 0, Final residual = 0, No Iterations 0
time step continuity errors (airRegion): sum local = 1.077746e-09, global = -1.160308e-10, cumulative = 0.07564741
DILUPBiCGStab:  Solving for epsilon, Initial residual = 0.005690737, Final residual = 6.055062e-07, No Iterations 2
DILUPBiCGStab:  Solving for k, Initial residual = 0.009348235, Final residual = 4.554843e-07, No Iterations 3

Solving for solid region panel
DICPCG:  Solving for h, Initial residual = 0.0112645, Final residual = 3.76924e-08, No Iterations 2
Min/max T:299.7901 300.0009
ExecutionTime = 7.88 s  ClockTime = 8 s

Region: airRegion Courant Number mean: 0.1987619 max: 5.368602
Region: panel Diffusion Number mean: 0.02596034 max: 0.2481145
deltaT = 0.877193
Time = 36.8421

diagonal:  Solving for rho, Initial residual = 0, Final residual = 0, No Iterations 0
DILUPBiCGStab:  Solving for h, Initial residual = 0.02082371, Final residual = 9.580618e-07, No Iterations 3
Solving view factor equations for band : 0
Solving view factor equations for band : 1
Min/max T:299.7401 300.0488

Solving for fluid region airRegion
DICPCG:  Solving for p_rgh, Initial residual = 0.006137721, Final residual = 0.0002666098, No Iterations 11
diagonal:  Solving for rho, Initial residual = 0, Final residual = 0, No Iterations 0
time step continuity errors (airRegion): sum local = 3.365099e-06, global = 6.908027e-07, cumulative = 0.0756481
DICPCG:  Solving for p_rgh, Initial residual = 0.003183181, Final residual = 8.258309e-08, No Iterations 48
diagonal:  Solving for rho, Initial residual = 0, Final residual = 0, No Iterations 0
time step continuity errors (airRegion): sum local = 1.055741e-09, global = -1.153325e-10, cumulative = 0.0756481
DILUPBiCGStab:  Solving for epsilon, Initial residual = 0.005706411, Final residual = 5.856374e-07, No Iterations 2
DILUPBiCGStab:  Solving for k, Initial residual = 0.009171213, Final residual = 4.359385e-07, No Iterations 3

Solving for solid region panel
DICPCG:  Solving for h, Initial residual = 0.01109962, Final residual = 3.678828e-08, No Iterations 2
Min/max T:299.7918 300.0005
ExecutionTime = 8.06 s  ClockTime = 8 s

Region: airRegion Courant Number mean: 0.1998546 max: 5.367516
Region: panel Diffusion Number mean: 0.02596034 max: 0.2481145
deltaT = 0.877193
Time = 37.7193

diagonal:  Solving for rho, Initial residual = 0, Final residual = 0, No Iterations 0
DILUPBiCGStab:  Solving for h, Initial residual = 0.02075901, Final residual = 9.654448e-07, No Iterations 3
Solving view factor equations for band : 0
Solving view factor equations for band : 1
Min/max T:299.7458 300.0486

Solving for fluid region airRegion
DICPCG:  Solving for p_rgh, Initial residual = 0.00685133, Final residual = 0.0003036535, No Iterations 10
diagonal:  Solving for rho, Initial residual = 0, Final residual = 0, No Iterations 0
time step continuity errors (airRegion): sum local = 3.864816e-06, global = 7.838769e-07, cumulative = 0.07564888
DICPCG:  Solving for p_rgh, Initial residual = 0.00326872, Final residual = 8.264396e-08, No Iterations 48
diagonal:  Solving for rho, Initial residual = 0, Final residual = 0, No Iterations 0
time step continuity errors (airRegion): sum local = 1.064656e-09, global = -1.049498e-10, cumulative = 0.07564888
DILUPBiCGStab:  Solving for epsilon, Initial residual = 0.005535763, Final residual = 5.520468e-07, No Iterations 2
DILUPBiCGStab:  Solving for k, Initial residual = 0.008869566, Final residual = 9.974033e-07, No Iterations 2

Solving for solid region panel
DICPCG:  Solving for h, Initial residual = 0.01094381, Final residual = 3.597734e-08, No Iterations 2
Min/max T:299.7933 300.0001
ExecutionTime = 8.22 s  ClockTime = 8 s

Region: airRegion Courant Number mean: 0.2009216 max: 5.36659
Region: panel Diffusion Number mean: 0.02596034 max: 0.2481145
deltaT = 0.877193
Time = 38.5965

diagonal:  Solving for rho, Initial residual = 0, Final residual = 0, No Iterations 0
DILUPBiCGStab:  Solving for h, Initial residual = 0.02057374, Final residual = 9.385292e-07, No Iterations 3
Solving view factor equations for band : 0
Solving view factor equations for band : 1
Min/max T:299.7511 300.0484

Solving for fluid region airRegion
DICPCG:  Solving for p_rgh, Initial residual = 0.006572281, Final residual = 0.0002648639, No Iterations 11
diagonal:  Solving for rho, Initial residual = 0, Final residual = 0, No Iterations 0
time step continuity errors (airRegion): sum local = 3.403479e-06, global = 6.771033e-07, cumulative = 0.07564956
DICPCG:  Solving for p_rgh, Initial residual = 0.003097409, Final residual = 7.810824e-08, No Iterations 48
diagonal:  Solving for rho, Initial residual = 0, Final residual = 0, No Iterations 0
time step continuity errors (airRegion): sum local = 1.017945e-09, global = -1.056565e-10, cumulative = 0.07564956
DILUPBiCGStab:  Solving for epsilon, Initial residual = 0.00550491, Final residual = 5.2435e-07, No Iterations 2
DILUPBiCGStab:  Solving for k, Initial residual = 0.008705488, Final residual = 9.891081e-07, No Iterations 2

Solving for solid region panel
DICPCG:  Solving for h, Initial residual = 0.01079646, Final residual = 3.525063e-08, No Iterations 2
Min/max T:299.7946 299.9997
ExecutionTime = 8.4 s  ClockTime = 9 s

Region: airRegion Courant Number mean: 0.2019972 max: 5.365954
Region: panel Diffusion Number mean: 0.02596034 max: 0.2481145
deltaT = 0.877193
Time = 39.4737

diagonal:  Solving for rho, Initial residual = 0, Final residual = 0, No Iterations 0
DILUPBiCGStab:  Solving for h, Initial residual = 0.02044405, Final residual = 9.339555e-07, No Iterations 3
Solving view factor equations for band : 0
Solving view factor equations for band : 1
Min/max T:299.7559 300.0482

Solving for fluid region airRegion
DICPCG:  Solving for p_rgh, Initial residual = 0.006848544, Final residual = 0.0003086607, No Iterations 10
diagonal:  Solving for rho, Initial residual = 0, Final residual = 0, No Iterations 0
time step continuity errors (airRegion): sum local = 4.004949e-06, global = 7.586975e-07, cumulative = 0.07565032
DICPCG:  Solving for p_rgh, Initial residual = 0.003140451, Final residual = 7.845037e-08, No Iterations 48
diagonal:  Solving for rho, Initial residual = 0, Final residual = 0, No Iterations 0
time step continuity errors (airRegion): sum local = 1.031781e-09, global = -1.035359e-10, cumulative = 0.07565032
DILUPBiCGStab:  Solving for epsilon, Initial residual = 0.005303105, Final residual = 4.886164e-07, No Iterations 2
DILUPBiCGStab:  Solving for k, Initial residual = 0.008416788, Final residual = 9.424073e-07, No Iterations 2

Solving for solid region panel
DICPCG:  Solving for h, Initial residual = 0.01065679, Final residual = 3.457589e-08, No Iterations 2
Min/max T:299.7957 299.9992
ExecutionTime = 8.56 s  ClockTime = 9 s

Region: airRegion Courant Number mean: 0.2030562 max: 5.365424
Region: panel Diffusion Number mean: 0.02596034 max: 0.2481145
deltaT = 0.877193
Time = 40.3509

diagonal:  Solving for rho, Initial residual = 0, Final residual = 0, No Iterations 0
DILUPBiCGStab:  Solving for h, Initial residual = 0.02027775, Final residual = 9.318473e-07, No Iterations 3
Solving view factor equations for band : 0
Solving view factor equations for band : 1
Min/max T:299.7602 300.048

Solving for fluid region airRegion
DICPCG:  Solving for p_rgh, Initial residual = 0.00607569, Final residual = 0.0002601521, No Iterations 11
diagonal:  Solving for rho, Initial residual = 0, Final residual = 0, No Iterations 0
time step continuity errors (airRegion): sum local = 3.40234e-06, global = 6.277857e-07, cumulative = 0.07565095
DICPCG:  Solving for p_rgh, Initial residual = 0.002951103, Final residual = 7.567939e-08, No Iterations 48
diagonal:  Solving for rho, Initial residual = 0, Final residual = 0, No Iterations 0
time step continuity errors (airRegion): sum local = 1.003771e-09, global = -9.791164e-11, cumulative = 0.07565095
DILUPBiCGStab:  Solving for epsilon, Initial residual = 0.005170437, Final residual = 4.700086e-07, No Iterations 2
DILUPBiCGStab:  Solving for k, Initial residual = 0.008243206, Final residual = 9.008316e-07, No Iterations 2

Solving for solid region panel
DICPCG:  Solving for h, Initial residual = 0.01052476, Final residual = 3.393271e-08, No Iterations 2
Min/max T:299.7967 299.9987
ExecutionTime = 8.73 s  ClockTime = 9 s

Region: airRegion Courant Number mean: 0.2041002 max: 5.367002
Region: panel Diffusion Number mean: 0.02596034 max: 0.2481145
deltaT = 0.877193
Time = 41.2281

diagonal:  Solving for rho, Initial residual = 0, Final residual = 0, No Iterations 0
DILUPBiCGStab:  Solving for h, Initial residual = 0.02007044, Final residual = 9.098611e-07, No Iterations 3
Solving view factor equations for band : 0
Solving view factor equations for band : 1
Min/max T:299.7642 300.0478

Solving for fluid region airRegion
DICPCG:  Solving for p_rgh, Initial residual = 0.006049001, Final residual = 0.0002935391, No Iterations 10
diagonal:  Solving for rho, Initial residual = 0, Final residual = 0, No Iterations 0
time step continuity errors (airRegion): sum local = 3.875311e-06, global = 7.175411e-07, cumulative = 0.07565166
DICPCG:  Solving for p_rgh, Initial residual = 0.002900657, Final residual = 7.280985e-08, No Iterations 48
diagonal:  Solving for rho, Initial residual = 0, Final residual = 0, No Iterations 0
time step continuity errors (airRegion): sum local = 9.74111e-10, global = -9.806431e-11, cumulative = 0.07565166
DILUPBiCGStab:  Solving for epsilon, Initial residual = 0.005241432, Final residual = 4.691432e-07, No Iterations 2
DILUPBiCGStab:  Solving for k, Initial residual = 0.008154227, Final residual = 9.004092e-07, No Iterations 2

Solving for solid region panel
DICPCG:  Solving for h, Initial residual = 0.0104016, Final residual = 3.333138e-08, No Iterations 2
Min/max T:299.7975 299.9982
ExecutionTime = 8.91 s  ClockTime = 9 s

Region: airRegion Courant Number mean: 0.205135 max: 5.373483
Region: panel Diffusion Number mean: 0.02596034 max: 0.2481145
deltaT = 0.877193
Time = 42.1053

diagonal:  Solving for rho, Initial residual = 0, Final residual = 0, No Iterations 0
DILUPBiCGStab:  Solving for h, Initial residual = 0.01990557, Final residual = 9.099683e-07, No Iterations 3
Solving view factor equations for band : 0
Solving view factor equations for band : 1
Min/max T:299.7679 300.0476

Solving for fluid region airRegion
DICPCG:  Solving for p_rgh, Initial residual = 0.007057835, Final residual = 0.0003039859, No Iterations 10
diagonal:  Solving for rho, Initial residual = 0, Final residual = 0, No Iterations 0
time step continuity errors (airRegion): sum local = 4.048793e-06, global = 7.088392e-07, cumulative = 0.07565237
DICPCG:  Solving for p_rgh, Initial residual = 0.003000757, Final residual = 7.194207e-08, No Iterations 48
diagonal:  Solving for rho, Initial residual = 0, Final residual = 0, No Iterations 0
time step continuity errors (airRegion): sum local = 9.717286e-10, global = -9.245527e-11, cumulative = 0.07565237
DILUPBiCGStab:  Solving for epsilon, Initial residual = 0.005078742, Final residual = 4.41195e-07, No Iterations 2
DILUPBiCGStab:  Solving for k, Initial residual = 0.007892787, Final residual = 8.536771e-07, No Iterations 2

Solving for solid region panel
DICPCG:  Solving for h, Initial residual = 0.01028886, Final residual = 3.276928e-08, No Iterations 2
Min/max T:299.7982 299.9977
ExecutionTime = 9.07 s  ClockTime = 9 s

Region: airRegion Courant Number mean: 0.2061534 max: 5.380633
Region: panel Diffusion Number mean: 0.02596034 max: 0.2481145
deltaT = 0.877193
Time = 42.9825

diagonal:  Solving for rho, Initial residual = 0, Final residual = 0, No Iterations 0
DILUPBiCGStab:  Solving for h, Initial residual = 0.01963748, Final residual = 8.809841e-07, No Iterations 3
Solving view factor equations for band : 0
Solving view factor equations for band : 1
Min/max T:299.7712 300.0474

Solving for fluid region airRegion
DICPCG:  Solving for p_rgh, Initial residual = 0.00587073, Final residual = 0.0002932256, No Iterations 10
diagonal:  Solving for rho, Initial residual = 0, Final residual = 0, No Iterations 0
time step continuity errors (airRegion): sum local = 3.940992e-06, global = 7.204952e-07, cumulative = 0.07565309
DICPCG:  Solving for p_rgh, Initial residual = 0.002779297, Final residual = 9.727895e-08, No Iterations 47
diagonal:  Solving for rho, Initial residual = 0, Final residual = 0, No Iterations 0
time step continuity errors (airRegion): sum local = 1.320673e-09, global = -1.138049e-10, cumulative = 0.07565309
DILUPBiCGStab:  Solving for epsilon, Initial residual = 0.004884063, Final residual = 4.16562e-07, No Iterations 2
DILUPBiCGStab:  Solving for k, Initial residual = 0.007611114, Final residual = 8.081516e-07, No Iterations 2

Solving for solid region panel
DICPCG:  Solving for h, Initial residual = 0.01018376, Final residual = 3.222803e-08, No Iterations 2
Min/max T:299.7987 299.9972
ExecutionTime = 9.24 s  ClockTime = 10 s

Region: airRegion Courant Number mean: 0.207161 max: 5.387998
Region: panel Diffusion Number mean: 0.02596034 max: 0.2481145
deltaT = 0.877193
Time = 43.8596

diagonal:  Solving for rho, Initial residual = 0, Final residual = 0, No Iterations 0
DILUPBiCGStab:  Solving for h, Initial residual = 0.01940441, Final residual = 8.788096e-07, No Iterations 3
Solving view factor equations for band : 0
Solving view factor equations for band : 1
Min/max T:299.7742 300.0472

Solving for fluid region airRegion
[...]
DILUPBiCGStab:  Solving for h, Initial residual = 0.0001593635, Final residual = 5.015509e-07, No Iterations 1
Solving view factor equations for band : 0
Solving view factor equations for band : 1
Min/max T:299.3488 300.086

Solving for fluid region airRegion
DICPCG:  Solving for p_rgh, Initial residual = 0.003629688, Final residual = 0.0001493692, No Iterations 2
diagonal:  Solving for rho, Initial residual = 0, Final residual = 0, No Iterations 0
time step continuity errors (airRegion): sum local = 2.636285e-06, global = -1.007383e-07, cumulative = 0.07571895
DICPCG:  Solving for p_rgh, Initial residual = 0.0006414936, Final residual = 9.747521e-08, No Iterations 33
diagonal:  Solving for rho, Initial residual = 0, Final residual = 0, No Iterations 0
time step continuity errors (airRegion): sum local = 1.724678e-09, global = 4.281706e-11, cumulative = 0.07571895
DILUPBiCGStab:  Solving for epsilon, Initial residual = 0.00065355, Final residual = 3.693528e-07, No Iterations 1
DILUPBiCGStab:  Solving for k, Initial residual = 0.0005257291, Final residual = 5.549126e-07, No Iterations 1

Solving for solid region panel
DICPCG:  Solving for h, Initial residual = 0.003939443, Final residual = 9.054748e-09, No Iterations 2
Min/max T:299.3423 299.7925
ExecutionTime = 86.45 s  ClockTime = 87 s

Region: airRegion Courant Number mean: 0.2313272 max: 5.850169
Region: panel Diffusion Number mean: 0.02596034 max: 0.2481145
deltaT = 0.877193
Time = 490.351

diagonal:  Solving for rho, Initial residual = 0, Final residual = 0, No Iterations 0
DILUPBiCGStab:  Solving for h, Initial residual = 0.0001508076, Final residual = 4.831238e-07, No Iterations 1
Solving view factor equations for band : 0
Solving view factor equations for band : 1
Min/max T:299.348 300.086

Solving for fluid region airRegion
DICPCG:  Solving for p_rgh, Initial residual = 0.003466819, Final residual = 0.0001604647, No Iterations 2
diagonal:  Solving for rho, Initial residual = 0, Final residual = 0, No Iterations 0
time step continuity errors (airRegion): sum local = 2.831342e-06, global = -1.203613e-07, cumulative = 0.07571883
DICPCG:  Solving for p_rgh, Initial residual = 0.0006077503, Final residual = 8.812838e-08, No Iterations 33
diagonal:  Solving for rho, Initial residual = 0, Final residual = 0, No Iterations 0
time step continuity errors (airRegion): sum local = 1.559935e-09, global = 4.672253e-11, cumulative = 0.07571883
DILUPBiCGStab:  Solving for epsilon, Initial residual = 0.0005561129, Final residual = 3.288793e-07, No Iterations 1
DILUPBiCGStab:  Solving for k, Initial residual = 0.0004443609, Final residual = 5.026655e-07, No Iterations 1

Solving for solid region panel
DICPCG:  Solving for h, Initial residual = 0.003935589, Final residual = 9.045647e-09, No Iterations 2
Min/max T:299.3416 299.792
ExecutionTime = 86.59 s  ClockTime = 87 s

Region: airRegion Courant Number mean: 0.2313228 max: 5.850222
Region: panel Diffusion Number mean: 0.02596034 max: 0.2481145
deltaT = 0.877193
Time = 491.228

diagonal:  Solving for rho, Initial residual = 0, Final residual = 0, No Iterations 0
DILUPBiCGStab:  Solving for h, Initial residual = 0.0001266544, Final residual = 4.610949e-07, No Iterations 1
Solving view factor equations for band : 0
Solving view factor equations for band : 1
Min/max T:299.3472 300.086

Solving for fluid region airRegion
DICPCG:  Solving for p_rgh, Initial residual = 0.002726103, Final residual = 0.0001163957, No Iterations 2
diagonal:  Solving for rho, Initial residual = 0, Final residual = 0, No Iterations 0
time step continuity errors (airRegion): sum local = 2.05383e-06, global = 1.383242e-07, cumulative = 0.07571897
DICPCG:  Solving for p_rgh, Initial residual = 0.0004868147, Final residual = 9.893696e-08, No Iterations 31
diagonal:  Solving for rho, Initial residual = 0, Final residual = 0, No Iterations 0
time step continuity errors (airRegion): sum local = 1.749611e-09, global = -3.579284e-11, cumulative = 0.07571897
DILUPBiCGStab:  Solving for epsilon, Initial residual = 0.0005778932, Final residual = 3.123558e-07, No Iterations 1
DILUPBiCGStab:  Solving for k, Initial residual = 0.0004619995, Final residual = 4.731575e-07, No Iterations 1

Solving for solid region panel
DICPCG:  Solving for h, Initial residual = 0.003931744, Final residual = 9.036569e-09, No Iterations 2
Min/max T:299.3408 299.7916
ExecutionTime = 86.73 s  ClockTime = 87 s

Region: airRegion Courant Number mean: 0.2313227 max: 5.850266
Region: panel Diffusion Number mean: 0.02596034 max: 0.2481145
deltaT = 0.877193
Time = 492.105

diagonal:  Solving for rho, Initial residual = 0, Final residual = 0, No Iterations 0
DILUPBiCGStab:  Solving for h, Initial residual = 0.0001339664, Final residual = 4.598351e-07, No Iterations 1
Solving view factor equations for band : 0
Solving view factor equations for band : 1
Min/max T:299.3464 300.086

Solving for fluid region airRegion
DICPCG:  Solving for p_rgh, Initial residual = 0.002755102, Final residual = 8.878742e-05, No Iterations 2
diagonal:  Solving for rho, Initial residual = 0, Final residual = 0, No Iterations 0
time step continuity errors (airRegion): sum local = 1.566842e-06, global = 7.491149e-08, cumulative = 0.07571904
DICPCG:  Solving for p_rgh, Initial residual = 0.0005284763, Final residual = 8.079804e-08, No Iterations 30
diagonal:  Solving for rho, Initial residual = 0, Final residual = 0, No Iterations 0
time step continuity errors (airRegion): sum local = 1.430263e-09, global = -6.801569e-11, cumulative = 0.07571904
DILUPBiCGStab:  Solving for epsilon, Initial residual = 0.0006836949, Final residual = 3.739263e-07, No Iterations 1
DILUPBiCGStab:  Solving for k, Initial residual = 0.0005460193, Final residual = 5.634852e-07, No Iterations 1

Solving for solid region panel
DICPCG:  Solving for h, Initial residual = 0.00392791, Final residual = 9.027514e-09, No Iterations 2
Min/max T:299.34 299.7912
ExecutionTime = 86.87 s  ClockTime = 87 s

Region: airRegion Courant Number mean: 0.2313223 max: 5.850343
Region: panel Diffusion Number mean: 0.02596034 max: 0.2481145
deltaT = 0.877193
Time = 492.982

diagonal:  Solving for rho, Initial residual = 0, Final residual = 0, No Iterations 0
DILUPBiCGStab:  Solving for h, Initial residual = 0.0001565086, Final residual = 4.84792e-07, No Iterations 1
Solving view factor equations for band : 0
Solving view factor equations for band : 1
Min/max T:299.3456 300.086

Solving for fluid region airRegion
DICPCG:  Solving for p_rgh, Initial residual = 0.003500629, Final residual = 0.000113565, No Iterations 2
diagonal:  Solving for rho, Initial residual = 0, Final residual = 0, No Iterations 0
time step continuity errors (airRegion): sum local = 2.003946e-06, global = 2.460694e-09, cumulative = 0.07571905
DICPCG:  Solving for p_rgh, Initial residual = 0.0006362806, Final residual = 9.771663e-08, No Iterations 30
diagonal:  Solving for rho, Initial residual = 0, Final residual = 0, No Iterations 0
time step continuity errors (airRegion): sum local = 1.727877e-09, global = 2.311969e-10, cumulative = 0.07571905
DILUPBiCGStab:  Solving for epsilon, Initial residual = 0.0006872469, Final residual = 3.87087e-07, No Iterations 1
DILUPBiCGStab:  Solving for k, Initial residual = 0.0005478259, Final residual = 5.830268e-07, No Iterations 1

Solving for solid region panel
DICPCG:  Solving for h, Initial residual = 0.003924085, Final residual = 9.018485e-09, No Iterations 2
Min/max T:299.3392 299.7908
ExecutionTime = 87.01 s  ClockTime = 87 s

Region: airRegion Courant Number mean: 0.2313221 max: 5.850451
Region: panel Diffusion Number mean: 0.02596034 max: 0.2481145
deltaT = 0.877193
Time = 493.86

diagonal:  Solving for rho, Initial residual = 0, Final residual = 0, No Iterations 0
DILUPBiCGStab:  Solving for h, Initial residual = 0.0001567704, Final residual = 4.914512e-07, No Iterations 1
Solving view factor equations for band : 0
Solving view factor equations for band : 1
Min/max T:299.3449 300.086

Solving for fluid region airRegion
DICPCG:  Solving for p_rgh, Initial residual = 0.003773246, Final residual = 0.0001241612, No Iterations 2
diagonal:  Solving for rho, Initial residual = 0, Final residual = 0, No Iterations 0
time step continuity errors (airRegion): sum local = 2.191935e-06, global = 2.351212e-07, cumulative = 0.07571928
DICPCG:  Solving for p_rgh, Initial residual = 0.0006533411, Final residual = 9.660703e-08, No Iterations 32
diagonal:  Solving for rho, Initial residual = 0, Final residual = 0, No Iterations 0
time step continuity errors (airRegion): sum local = 1.710196e-09, global = 7.718349e-11, cumulative = 0.07571928
DILUPBiCGStab:  Solving for epsilon, Initial residual = 0.0006997015, Final residual = 3.981192e-07, No Iterations 1
DILUPBiCGStab:  Solving for k, Initial residual = 0.0005623311, Final residual = 6.01863e-07, No Iterations 1

Solving for solid region panel
DICPCG:  Solving for h, Initial residual = 0.003920272, Final residual = 9.009481e-09, No Iterations 2
Min/max T:299.3385 299.7904
ExecutionTime = 87.16 s  ClockTime = 87 s

Region: airRegion Courant Number mean: 0.2313254 max: 5.850561
Region: panel Diffusion Number mean: 0.02596034 max: 0.2481145
deltaT = 0.877193
Time = 494.737

diagonal:  Solving for rho, Initial residual = 0, Final residual = 0, No Iterations 0
DILUPBiCGStab:  Solving for h, Initial residual = 0.0001606493, Final residual = 4.961133e-07, No Iterations 1
Solving view factor equations for band : 0
Solving view factor equations for band : 1
Min/max T:299.3441 300.086

Solving for fluid region airRegion
DICPCG:  Solving for p_rgh, Initial residual = 0.003484344, Final residual = 0.0001615924, No Iterations 2
diagonal:  Solving for rho, Initial residual = 0, Final residual = 0, No Iterations 0
time step continuity errors (airRegion): sum local = 2.85057e-06, global = -2.697035e-07, cumulative = 0.07571901
DICPCG:  Solving for p_rgh, Initial residual = 0.0006151073, Final residual = 9.99827e-08, No Iterations 35
diagonal:  Solving for rho, Initial residual = 0, Final residual = 0, No Iterations 0
time step continuity errors (airRegion): sum local = 1.769006e-09, global = 8.642047e-12, cumulative = 0.07571901
DILUPBiCGStab:  Solving for epsilon, Initial residual = 0.0006194531, Final residual = 3.442682e-07, No Iterations 1
DILUPBiCGStab:  Solving for k, Initial residual = 0.000495831, Final residual = 5.180403e-07, No Iterations 1

Solving for solid region panel
DICPCG:  Solving for h, Initial residual = 0.003916468, Final residual = 9.000499e-09, No Iterations 2
Min/max T:299.3377 299.79
ExecutionTime = 87.31 s  ClockTime = 88 s

Region: airRegion Courant Number mean: 0.2313198 max: 5.850645
Region: panel Diffusion Number mean: 0.02596034 max: 0.2481145
deltaT = 0.877193
Time = 495.614

diagonal:  Solving for rho, Initial residual = 0, Final residual = 0, No Iterations 0
DILUPBiCGStab:  Solving for h, Initial residual = 0.0001415154, Final residual = 4.666828e-07, No Iterations 1
Solving view factor equations for band : 0
Solving view factor equations for band : 1
Min/max T:299.3433 300.086

Solving for fluid region airRegion
DICPCG:  Solving for p_rgh, Initial residual = 0.003120837, Final residual = 0.0001478634, No Iterations 2
diagonal:  Solving for rho, Initial residual = 0, Final residual = 0, No Iterations 0
time step continuity errors (airRegion): sum local = 2.608767e-06, global = 1.782518e-07, cumulative = 0.07571919
DICPCG:  Solving for p_rgh, Initial residual = 0.0005601207, Final residual = 9.078735e-08, No Iterations 33
diagonal:  Solving for rho, Initial residual = 0, Final residual = 0, No Iterations 0
time step continuity errors (airRegion): sum local = 1.607603e-09, global = 1.596178e-10, cumulative = 0.07571919
DILUPBiCGStab:  Solving for epsilon, Initial residual = 0.0006178584, Final residual = 3.496692e-07, No Iterations 1
DILUPBiCGStab:  Solving for k, Initial residual = 0.0004931095, Final residual = 5.310397e-07, No Iterations 1

Solving for solid region panel
DICPCG:  Solving for h, Initial residual = 0.003912673, Final residual = 8.991542e-09, No Iterations 2
Min/max T:299.3369 299.7895
ExecutionTime = 87.46 s  ClockTime = 88 s

Region: airRegion Courant Number mean: 0.231318 max: 5.850688
Region: panel Diffusion Number mean: 0.02596034 max: 0.2481145
deltaT = 0.877193
Time = 496.491

diagonal:  Solving for rho, Initial residual = 0, Final residual = 0, No Iterations 0
DILUPBiCGStab:  Solving for h, Initial residual = 0.000145601, Final residual = 4.794016e-07, No Iterations 1
Solving view factor equations for band : 0
Solving view factor equations for band : 1
Min/max T:299.3425 300.086

Solving for fluid region airRegion
DICPCG:  Solving for p_rgh, Initial residual = 0.003041232, Final residual = 0.0001058293, No Iterations 2
diagonal:  Solving for rho, Initial residual = 0, Final residual = 0, No Iterations 0
time step continuity errors (airRegion): sum local = 1.866952e-06, global = -5.969469e-08, cumulative = 0.07571913
DICPCG:  Solving for p_rgh, Initial residual = 0.0005391737, Final residual = 9.024668e-08, No Iterations 32
diagonal:  Solving for rho, Initial residual = 0, Final residual = 0, No Iterations 0
time step continuity errors (airRegion): sum local = 1.596403e-09, global = 1.901353e-10, cumulative = 0.07571913
DILUPBiCGStab:  Solving for epsilon, Initial residual = 0.0006075358, Final residual = 3.487177e-07, No Iterations 1
DILUPBiCGStab:  Solving for k, Initial residual = 0.0004844689, Final residual = 5.256183e-07, No Iterations 1

Solving for solid region panel
DICPCG:  Solving for h, Initial residual = 0.003908887, Final residual = 8.982604e-09, No Iterations 2
Min/max T:299.3361 299.7891
ExecutionTime = 87.6 s  ClockTime = 88 s

Region: airRegion Courant Number mean: 0.2313147 max: 5.850736
Region: panel Diffusion Number mean: 0.02596034 max: 0.2481145
deltaT = 0.877193
Time = 497.368

diagonal:  Solving for rho, Initial residual = 0, Final residual = 0, No Iterations 0
DILUPBiCGStab:  Solving for h, Initial residual = 0.0001396721, Final residual = 4.69457e-07, No Iterations 1
Solving view factor equations for band : 0
Solving view factor equations for band : 1
Min/max T:299.3418 300.086

Solving for fluid region airRegion
DICPCG:  Solving for p_rgh, Initial residual = 0.003139368, Final residual = 0.0001118024, No Iterations 2
diagonal:  Solving for rho, Initial residual = 0, Final residual = 0, No Iterations 0
time step continuity errors (airRegion): sum local = 1.973479e-06, global = 1.865375e-07, cumulative = 0.07571932
DICPCG:  Solving for p_rgh, Initial residual = 0.0005503827, Final residual = 9.725767e-08, No Iterations 31
diagonal:  Solving for rho, Initial residual = 0, Final residual = 0, No Iterations 0
time step continuity errors (airRegion): sum local = 1.720365e-09, global = -9.156319e-11, cumulative = 0.07571932
DILUPBiCGStab:  Solving for epsilon, Initial residual = 0.000684067, Final residual = 3.735815e-07, No Iterations 1
DILUPBiCGStab:  Solving for k, Initial residual = 0.0005468631, Final residual = 5.618911e-07, No Iterations 1

Solving for solid region panel
DICPCG:  Solving for h, Initial residual = 0.00390511, Final residual = 8.973689e-09, No Iterations 2
Min/max T:299.3354 299.7887
ExecutionTime = 87.75 s  ClockTime = 88 s

Region: airRegion Courant Number mean: 0.2313186 max: 5.85083
Region: panel Diffusion Number mean: 0.02596034 max: 0.2481145
deltaT = 0.877193
Time = 498.246

diagonal:  Solving for rho, Initial residual = 0, Final residual = 0, No Iterations 0
DILUPBiCGStab:  Solving for h, Initial residual = 0.0001548503, Final residual = 4.819854e-07, No Iterations 1
Solving view factor equations for band : 0
Solving view factor equations for band : 1
Min/max T:299.341 300.086

Solving for fluid region airRegion
DICPCG:  Solving for p_rgh, Initial residual = 0.003460479, Final residual = 0.0001197187, No Iterations 2
diagonal:  Solving for rho, Initial residual = 0, Final residual = 0, No Iterations 0
time step continuity errors (airRegion): sum local = 2.112916e-06, global = -1.047095e-07, cumulative = 0.07571921
DICPCG:  Solving for p_rgh, Initial residual = 0.0006225531, Final residual = 8.193165e-08, No Iterations 31
diagonal:  Solving for rho, Initial residual = 0, Final residual = 0, No Iterations 0
time step continuity errors (airRegion): sum local = 1.451533e-09, global = -1.313046e-11, cumulative = 0.07571921
DILUPBiCGStab:  Solving for epsilon, Initial residual = 0.0006591114, Final residual = 3.313729e-07, No Iterations 1
DILUPBiCGStab:  Solving for k, Initial residual = 0.000526814, Final residual = 4.974154e-07, No Iterations 1

Solving for solid region panel
DICPCG:  Solving for h, Initial residual = 0.003901344, Final residual = 8.964798e-09, No Iterations 2
Min/max T:299.3346 299.7883
ExecutionTime = 87.89 s  ClockTime = 88 s

Region: airRegion Courant Number mean: 0.2313173 max: 5.850937
Region: panel Diffusion Number mean: 0.02596034 max: 0.2481145
deltaT = 0.877193
Time = 499.123

diagonal:  Solving for rho, Initial residual = 0, Final residual = 0, No Iterations 0
DILUPBiCGStab:  Solving for h, Initial residual = 0.0001479143, Final residual = 4.622462e-07, No Iterations 1
Solving view factor equations for band : 0
Solving view factor equations for band : 1
Min/max T:299.3402 300.086

Solving for fluid region airRegion
DICPCG:  Solving for p_rgh, Initial residual = 0.003531786, Final residual = 0.0001077374, No Iterations 2
diagonal:  Solving for rho, Initial residual = 0, Final residual = 0, No Iterations 0
time step continuity errors (airRegion): sum local = 1.901892e-06, global = 2.134647e-07, cumulative = 0.07571943
DICPCG:  Solving for p_rgh, Initial residual = 0.0005976332, Final residual = 9.623479e-08, No Iterations 31
diagonal:  Solving for rho, Initial residual = 0, Final residual = 0, No Iterations 0
time step continuity errors (airRegion): sum local = 1.703271e-09, global = -1.798554e-12, cumulative = 0.07571943
DILUPBiCGStab:  Solving for epsilon, Initial residual = 0.0006095856, Final residual = 3.281628e-07, No Iterations 1
DILUPBiCGStab:  Solving for k, Initial residual = 0.0004864345, Final residual = 4.95778e-07, No Iterations 1

Solving for solid region panel
DICPCG:  Solving for h, Initial residual = 0.003897588, Final residual = 8.955933e-09, No Iterations 2
Min/max T:299.3338 299.7879
ExecutionTime = 88.03 s  ClockTime = 88 s

Region: airRegion Courant Number mean: 0.2313199 max: 5.851026
Region: panel Diffusion Number mean: 0.02596034 max: 0.2481145
deltaT = 0.877193
Time = 500

diagonal:  Solving for rho, Initial residual = 0, Final residual = 0, No Iterations 0
DILUPBiCGStab:  Solving for h, Initial residual = 0.000138277, Final residual = 4.621051e-07, No Iterations 1
Solving view factor equations for band : 0
Solving view factor equations for band : 1
Min/max T:299.3394 300.086

Solving for fluid region airRegion
DICPCG:  Solving for p_rgh, Initial residual = 0.003117102, Final residual = 0.000116531, No Iterations 2
diagonal:  Solving for rho, Initial residual = 0, Final residual = 0, No Iterations 0
time step continuity errors (airRegion): sum local = 2.056781e-06, global = -8.858383e-08, cumulative = 0.07571934
DICPCG:  Solving for p_rgh, Initial residual = 0.0005420199, Final residual = 8.831664e-08, No Iterations 33
diagonal:  Solving for rho, Initial residual = 0, Final residual = 0, No Iterations 0
time step continuity errors (airRegion): sum local = 1.563132e-09, global = 1.656228e-11, cumulative = 0.07571934
DILUPBiCGStab:  Solving for epsilon, Initial residual = 0.0005854808, Final residual = 3.279471e-07, No Iterations 1
DILUPBiCGStab:  Solving for k, Initial residual = 0.0004678693, Final residual = 4.986849e-07, No Iterations 1

Solving for solid region panel
DICPCG:  Solving for h, Initial residual = 0.003893841, Final residual = 8.947089e-09, No Iterations 2
Min/max T:299.333 299.7874
ExecutionTime = 88.45 s  ClockTime = 89 s

End

