/*---------------------------------------------------------------------------*\
| =========                 |                                                 |
| \\      /  F ield         | OpenFOAM: The Open Source CFD Toolbox           |
|  \\    /   O peration     | Version:  2506                                  |
|   \\  /    A nd           | Website:  www.openfoam.com                      |
|    \\/     M anipulation  |                                                 |
\*---------------------------------------------------------------------------*/
Build  : _615aae61d7-20250627 OPENFOAM=2506 version=v2506
Arch   : "LSB;label=32;scalar=64"
Exec   : snappyHexMesh -overwrite
Date   : Feb 22 2026
Time   : 11:09:32
Host   : dym
PID    : 26310
I/O    : uncollated
Case   : /home/dym/OpenFOAM/dym-v2506/run/Changesolver
nProcs : 1
trapFpe: Floating point exception trapping enabled (FOAM_SIGFPE).
fileModificationChecking : Monitoring run-time modified files using timeStampMaster (fileModificationSkew 5, maxFileModificationPolls 20)
allowSystemOperations : Allowing user-supplied system call operations

// * * * * * * * * * * * * * * * * * * * * * * * * * * * * * * * * * * * * * //
Create time

Create mesh for time = 0

Read mesh in = 0.06 s

Overall mesh bounding box  : (0 0 -0.5) (10 10 10)
Relative tolerance         : 1e-06
Absolute matching distance : 1.761391e-05

Reading refinement surfaces.
Read refinement surfaces in = 0 s

Reading refinement shells.
Refinement level according to distance to panel2.stl
    level 2 for all cells within 0.01 metre.
    level 1 for all cells within 0.05 metre.
Read refinement shells in = 0 s

Setting refinement level of surface to be consistent with shells.
For geometry panel2.stl detected 0 uncached triangles out of 12
Checked shell refinement in = 0 s

Reading features.
Read features in = 0 s


Determining initial surface intersections
-----------------------------------------

Edge intersection testing:
    Number of edges             : 100260
    Number of edges to retest   : 0
    Number of intersected edges : 0
Edge intersection testing:
    Number of edges             : 100260
    Number of edges to retest   : 100260
    Number of intersected edges : 96
Calculated surface intersections in = 0.04 s

Initial mesh : cells:32400  faces:100260  points:35557
Cells per refinement level:
    0	32400
Setting refinement level of surface to be consistent with curvature.
Checked curvature refinement in = 0 s


Adding patches for surface regions
----------------------------------

Patch Type                Region                        
----- ----                ------                        
solid:

10    wall                solid                         

Added patches in = 0.01 s

Edge intersection testing:
    Number of edges             : 100260
    Number of edges to retest   : 0
    Number of intersected edges : 96
Decomposition method none [1]

Refinement phase
----------------

Found point (1 1 1) in cell 2793 on processor 0
Found point (5 5 3.8) in cell 11234 on processor 0

Surface refinement iteration 0
------------------------------

Marked for refinement due to surface intersection          : 132 cells.
Marked for refinement due to curvature/regions             : 0 cells.
Determined cells to refine in = 0.01 s
Selected for refinement : 132 cells (out of 32400)
Edge intersection testing:
    Number of edges             : 103332
    Number of edges to retest   : 4076
    Number of intersected edges : 384
Refined mesh in = 0.04 s
After refinement surface refinement iteration 0 : cells:33324  faces:103332  points:36800
Cells per refinement level:
    0	32268
    1	1056

Surface refinement iteration 1
------------------------------

Marked for refinement due to surface intersection          : 672 cells.
Marked for refinement due to curvature/regions             : 0 cells.
Determined cells to refine in = 0 s
Selected for refinement : 724 cells (out of 33324)
Edge intersection testing:
    Number of edges             : 119460
    Number of edges to retest   : 20328
    Number of intersected edges : 1536
Refined mesh in = 0.05 s
After refinement surface refinement iteration 1 : cells:38392  faces:119460  points:42824
Cells per refinement level:
    0	32216
    1	800
    2	5376

Surface refinement iteration 2
------------------------------

Marked for refinement due to surface intersection          : 48 cells.
Marked for refinement due to curvature/regions             : 0 cells.
Determined cells to refine in = 0 s
Selected for refinement : 52 cells (out of 38392)
Edge intersection testing:
    Number of edges             : 120564
    Number of edges to retest   : 3536
    Number of intersected edges : 1536
Refined mesh in = 0.06 s
After refinement surface refinement iteration 2 : cells:38756  faces:120564  points:43200
Cells per refinement level:
    0	32212
    1	784
    2	5760

Surface refinement iteration 3
------------------------------

Marked for refinement due to surface intersection          : 0 cells.
Marked for refinement due to curvature/regions             : 0 cells.
Determined cells to refine in = 0 s
Selected for refinement : 0 cells (out of 38756)
Stopping refining since too few cells selected.


Removing mesh beyond surface intersections
------------------------------------------

Setting cellZones according to locationsInMesh:
Location : (1 1 1)
    cellZone : air
Location : (5 5 3.8)
    cellZone : solid

For cellZone air found point (1 1 1) in global region 0 out of 2 regions.
For cellZone solid found point (5 5 3.8) in global region 1 out of 2 regions.
--> FOAM Warning : 
    From void Foam::meshRefinement::nearestFace(const Foam::labelUList&, const Foam::bitSet&, Foam::autoPtr<Foam::mapDistribute>&, Foam::labelList&, Foam::label) const
    in file meshRefinement/meshRefinement.C at line 526
    Did not visit some faces, e.g. face 0 at (0.3333333 0.1666667 0.1515152)
Keeping all cells containing inside points
Selected for keeping : 38756 cells.
Edge intersection testing:
    Number of edges             : 120564
    Number of edges to retest   : 0
    Number of intersected edges : 1536

Shell refinement iteration 0
----------------------------

Marked for refinement due to distance to explicit features : 0 cells.
Marked for refinement due to refinement shells             : 0 cells.
Determined cells to refine in = 0.05 s
Selected for internal refinement : 0 cells (out of 38756)
Stopping refining since too few cells selected.


Dangling coarse cells refinement iteration 0
--------------------------------------------

Determined cells to refine in = 0 s
Selected for refinement : 0 cells (out of 38756)
Stopping refining since too few cells selected.


Dangling coarse cells refinement iteration 0
--------------------------------------------

Determined cells to refine in = 0 s
Selected for refinement : 0 cells (out of 38756)
Stopping refining since too few cells selected.


Refinement transition refinement iteration 0
--------------------------------------------

Determined cells to refine in = 0 s
Selected for refinement : 0 cells (out of 38756)
Stopping refining since too few cells selected.


Splitting mesh at surface intersections
---------------------------------------

Introducing baffles for 1536 faces that are intersected by the surface.

Setting cellZones according to locationsInMesh:
Location : (1 1 1)
    cellZone : air
Location : (5 5 3.8)
    cellZone : solid

For cellZone air found point (1 1 1) in global region 0 out of 2 regions.
For cellZone solid found point (5 5 3.8) in global region 1 out of 2 regions.
Created baffles in = 0.02 s


After introducing baffles : cells:38756  faces:120564  points:43200
Cells per refinement level:
    0	32212
    1	784
    2	5760

Introducing baffles to block off problem cells
----------------------------------------------

--> FOAM Warning : 
    From void Foam::meshRefinement::nearestPatch(const Foam::labelList&, Foam::labelList&, Foam::labelList&) const
    in file meshRefinement/meshRefinement.C at line 631
    Did not visit some faces, e.g. face 0 at (0.3333333 0.1666667 0.1515152)
Assigning these faces to patch 10
markFacesOnProblemCells : marked 0 additional internal faces to be converted into baffles.
Analyzed problem cells in = 0.01 s


Introducing baffles to delete problem cells.

Created baffles in = 0.01 s


After introducing baffles : cells:38756  faces:120564  points:43200
Cells per refinement level:
    0	32212
    1	784
    2	5760
Setting cellZones according to locationsInMesh:
Location : (1 1 1)
    cellZone : air
Location : (5 5 3.8)
    cellZone : solid

For cellZone air found point (1 1 1) in global region 0 out of 2 regions.
For cellZone solid found point (5 5 3.8) in global region 1 out of 2 regions.

Remove unreachable sections of mesh
-----------------------------------

Split mesh in = 0.01 s


After subsetting : cells:38756  faces:120564  points:43200
Cells per refinement level:
    0	32212
    1	784
    2	5760

Introducing zones for interfaces
--------------------------------

Setting cellZones according to locationsInMesh:
Location : (1 1 1)
    cellZone : air
Location : (5 5 3.8)
    cellZone : solid

For cellZone air found point (1 1 1) in global region 0 out of 2 regions.
For cellZone solid found point (5 5 3.8) in global region 1 out of 2 regions.
Setting faceZones according to neighbouring cellZones:
cellZones : air solid
    faceZone : air_to_solid

CellZones:
    air	size:36452
    solid	size:2304

FaceZones:
    air_to_solid	size:1536

Edge intersection testing:
    Number of edges             : 120564
    Number of edges to retest   : 0
    Number of intersected edges : 1536

Adding patches for face zones
-----------------------------

Patch Type                Name                          FaceZone                      FaceType  
----- ----                ----                          --------                      --------  
11    wall                air_to_solid                  air_to_solid                  internal  
12    wall                solid_to_air                  air_to_solid                  internal  


Handling cells with snap problems
---------------------------------

Introducing baffles for 1536 faces that are intersected by the surface.

Setting cellZones according to locationsInMesh:
Location : (1 1 1)
    cellZone : air
Location : (5 5 3.8)
    cellZone : solid

For cellZone air found point (1 1 1) in global region 0 out of 2 regions.
For cellZone solid found point (5 5 3.8) in global region 1 out of 2 regions.
Created baffles in = 0.04 s


After introducing baffles : cells:38756  faces:120564  points:43200
Cells per refinement level:
    0	32212
    1	784
    2	5760

Introducing baffles to block off problem cells
----------------------------------------------

--> FOAM Warning : 
    From void Foam::meshRefinement::nearestPatch(const Foam::labelList&, Foam::labelList&, Foam::labelList&) const
    in file meshRefinement/meshRefinement.C at line 631
    Did not visit some faces, e.g. face 0 at (0.3333333 0.1666667 0.1515152)
Assigning these faces to patch 10
markFacesOnProblemCells : marked 0 additional internal faces to be converted into baffles.
Analyzed problem cells in = 0.02 s


Introducing baffles to delete problem cells.

Created baffles in = 0.01 s


After introducing baffles : cells:38756  faces:120564  points:43200
Cells per refinement level:
    0	32212
    1	784
    2	5760
Setting cellZones according to locationsInMesh:
Location : (1 1 1)
    cellZone : air
Location : (5 5 3.8)
    cellZone : solid

For cellZone air found point (1 1 1) in global region 0 out of 2 regions.
For cellZone solid found point (5 5 3.8) in global region 1 out of 2 regions.

Remove unreachable sections of mesh
-----------------------------------

Split mesh in = 0.01 s


After subsetting : cells:38756  faces:120564  points:43200
Cells per refinement level:
    0	32212
    1	784
    2	5760

Merge free-standing baffles
---------------------------

freeStandingBaffles : detected 0 free-standing baffles out of 0

Detected free-standing baffles : 0
Merged free-standing baffles in = 0 s


dupNonManifoldPoints : Found : 0 non-manifold points (out of 43200)
Detected unsplittable baffles : 0

Merge refined boundary faces
----------------------------

Merging 0 sets of faces.

No faces merged ...

Merging all points on surface that
- are used by only two boundary faces and
- make an angle with a cosine of more than 0.7071068.

No straight edges simplified and no points removed ...
Refined mesh : cells:38756  faces:120564  points:43200
Cells per refinement level:
    0	32212
    1	784
    2	5760
Writing mesh to time constant
Wrote mesh in = 0.07 s.
Mesh refined in = 0.42 s.

Morphing phase
--------------

Converting zoned faces into baffles ...

FaceZone                      FaceType  nBaffles  
--------                      --------  --------  
air_to_solid                  internal  1536      

Edge intersection testing:
    Number of edges             : 122100
    Number of edges to retest   : 11700
    Number of intersected edges : 3072
Created 1536 baffles in = 0.11 s


Duplicating 0 points on faceZones of type boundary
Snapping to features in 10 iterations ...
Constructing mesh displacer ...
Using mesh parameters 
{
    maxNonOrtho     65;
    maxBoundarySkewness 20;
    maxInternalSkewness 4;
    maxConcave      80;
    minVol          1e-13;
    minTetQuality   1e-15;
    minArea         -1;
    minTwist        0.02;
    minDeterminant  0.001;
    minFaceWeight   0.05;
    minVolRatio     0.01;
    minTriangleTwist -1;
    minEdgeLength   -1;
    relaxed
    {
        maxNonOrtho     75;
    }
    nSmoothScale    4;
    errorReduction  0.75;
}


Checking initial mesh ...
Checking faces in error :
    non-orthogonality > 65  degrees                        : 0
    faces with face pyramid volume < 1e-13                 : 0
    faces with face-decomposition tet quality < 1e-15      : 0
    faces with concavity > 80  degrees                     : 0
    faces with skewness > 4   (internal) or 20  (boundary) : 0
    faces with interpolation weights (0..1)  < 0.05        : 0
    faces with volume ratio of neighbour cells < 0.01      : 0
    faces with face twist < 0.02                           : 0
    faces on cells with determinant < 0.001                : 0
Detected 0 illegal faces (concave, zero area or negative cell pyramid volume)
Checked initial mesh in = 0.05 s


Smoothing patch points ...
Smoothing iteration 0
Found 0 non-manifold point(s).

Scaling iteration 0
Moving mesh using displacement scaling : min:1 max:1
Checking faces in error :
    non-orthogonality > 65  degrees                        : 0
    faces with face pyramid volume < 1e-13                 : 0
    faces with face-decomposition tet quality < 1e-15      : 0
    faces with concavity > 80  degrees                     : 0
    faces with skewness > 4   (internal) or 20  (boundary) : 0
    faces with interpolation weights (0..1)  < 0.05        : 0
    faces with volume ratio of neighbour cells < 0.01      : 0
    faces with face twist < 0.02                           : 0
    faces on cells with determinant < 0.001                : 0
Successfully moved mesh

Smoothing iteration 1
Found 0 non-manifold point(s).

Scaling iteration 0
Moving mesh using displacement scaling : min:1 max:1
Checking faces in error :
    non-orthogonality > 65  degrees                        : 0
    faces with face pyramid volume < 1e-13                 : 0
    faces with face-decomposition tet quality < 1e-15      : 0
    faces with concavity > 80  degrees                     : 0
    faces with skewness > 4   (internal) or 20  (boundary) : 0
    faces with interpolation weights (0..1)  < 0.05        : 0
    faces with volume ratio of neighbour cells < 0.01      : 0
    faces with face twist < 0.02                           : 0
    faces on cells with determinant < 0.001                : 0
Successfully moved mesh

Smoothing iteration 2
Found 0 non-manifold point(s).

Scaling iteration 0
Moving mesh using displacement scaling : min:1 max:1
Checking faces in error :
    non-orthogonality > 65  degrees                        : 0
    faces with face pyramid volume < 1e-13                 : 0
    faces with face-decomposition tet quality < 1e-15      : 0
    faces with concavity > 80  degrees                     : 0
    faces with skewness > 4   (internal) or 20  (boundary) : 0
    faces with interpolation weights (0..1)  < 0.05        : 0
    faces with volume ratio of neighbour cells < 0.01      : 0
    faces with face twist < 0.02                           : 0
    faces on cells with determinant < 0.001                : 0
Successfully moved mesh

Patch points smoothed in = 0.17 s



Morph iteration 0
-----------------
Calculating patchDisplacement as distance to nearest surface point ...
    non-zone points : attract to nearest of all non-zone surfaces
    zone points     : attract to zone surface only

--> FOAM Warning : 
    From static Foam::vectorField Foam::snappySnapDriver::calcNearestSurface(bool, const Foam::meshRefinement&, const Foam::labelList&, const Foam::labelList&, const Foam::indirectPrimitivePatch&, const Foam::pointField&, const Foam::scalarField&, Foam::pointField&, Foam::vectorField&)
    in file snappyHexMeshDriver/snappySnapDriver.C at line 2062
    For point:0 coordinate:(4.027852 4.089967 3.737356) did not find any surface within:0.0008333333 metre.
--> FOAM Warning : 
    From static Foam::vectorField Foam::snappySnapDriver::calcNearestSurface(bool, const Foam::meshRefinement&, const Foam::labelList&, const Foam::labelList&, const Foam::indirectPrimitivePatch&, const Foam::pointField&, const Foam::scalarField&, Foam::pointField&, Foam::vectorField&)
    in file snappyHexMeshDriver/snappySnapDriver.C at line 2062
    For point:1 coordinate:(4.033782 4.033782 3.741673) did not find any surface within:0.0008333333 metre.
--> FOAM Warning : 
    From static Foam::vectorField Foam::snappySnapDriver::calcNearestSurface(bool, const Foam::meshRefinement&, const Foam::labelList&, const Foam::labelList&, const Foam::indirectPrimitivePatch&, const Foam::pointField&, const Foam::scalarField&, Foam::pointField&, Foam::vectorField&)
    in file snappyHexMeshDriver/snappySnapDriver.C at line 2062
    For point:2 coordinate:(4.089967 4.027852 3.737356) did not find any surface within:0.0008333333 metre.
--> FOAM Warning : 
    From static Foam::vectorField Foam::snappySnapDriver::calcNearestSurface(bool, const Foam::meshRefinement&, const Foam::labelList&, const Foam::labelList&, const Foam::indirectPrimitivePatch&, const Foam::pointField&, const Foam::scalarField&, Foam::pointField&, Foam::vectorField&)
    in file snappyHexMeshDriver/snappySnapDriver.C at line 2062
    For point:3 coordinate:(4.089527 4.089527 3.720922) did not find any surface within:0.0008333333 metre.
--> FOAM Warning : 
    From static Foam::vectorField Foam::snappySnapDriver::calcNearestSurface(bool, const Foam::meshRefinement&, const Foam::labelList&, const Foam::labelList&, const Foam::indirectPrimitivePatch&, const Foam::pointField&, const Foam::scalarField&, Foam::pointField&, Foam::vectorField&)
    in file snappyHexMeshDriver/snappySnapDriver.C at line 2062
    For point:4 coordinate:(4.333333 4.088799 3.71709) did not find any surface within:0.0008333333 metre.
--> FOAM Warning : 
    From static Foam::vectorField Foam::snappySnapDriver::calcNearestSurface(bool, const Foam::meshRefinement&, const Foam::labelList&, const Foam::labelList&, const Foam::indirectPrimitivePatch&, const Foam::pointField&, const Foam::scalarField&, Foam::pointField&, Foam::vectorField&)
    in file snappyHexMeshDriver/snappySnapDriver.C at line 2062
    For point:5 coordinate:(4.333333 4.025711 3.735495) did not find any surface within:0.0008333333 metre.
--> FOAM Warning : 
    From static Foam::vectorField Foam::snappySnapDriver::calcNearestSurface(bool, const Foam::meshRefinement&, const Foam::labelList&, const Foam::labelList&, const Foam::indirectPrimitivePatch&, const Foam::pointField&, const Foam::scalarField&, Foam::pointField&, Foam::vectorField&)
    in file snappyHexMeshDriver/snappySnapDriver.C at line 2062
    For point:6 coordinate:(4.416667 4.025711 3.735495) did not find any surface within:0.0008333333 metre.
--> FOAM Warning : 
    From static Foam::vectorField Foam::snappySnapDriver::calcNearestSurface(bool, const Foam::meshRefinement&, const Foam::labelList&, const Foam::labelList&, const Foam::indirectPrimitivePatch&, const Foam::pointField&, const Foam::scalarField&, Foam::pointField&, Foam::vectorField&)
    in file snappyHexMeshDriver/snappySnapDriver.C at line 2062
    For point:7 coordinate:(4.416667 4.088799 3.71709) did not find any surface within:0.0008333333 metre.
--> FOAM Warning : 
    From static Foam::vectorField Foam::snappySnapDriver::calcNearestSurface(bool, const Foam::meshRefinement&, const Foam::labelList&, const Foam::labelList&, const Foam::indirectPrimitivePatch&, const Foam::pointField&, const Foam::scalarField&, Foam::pointField&, Foam::vectorField&)
    in file snappyHexMeshDriver/snappySnapDriver.C at line 2062
    For point:8 coordinate:(4.666667 4.088799 3.71709) did not find any surface within:0.0008333333 metre.
--> FOAM Warning : 
    From static Foam::vectorField Foam::snappySnapDriver::calcNearestSurface(bool, const Foam::meshRefinement&, const Foam::labelList&, const Foam::labelList&, const Foam::indirectPrimitivePatch&, const Foam::pointField&, const Foam::scalarField&, Foam::pointField&, Foam::vectorField&)
    in file snappyHexMeshDriver/snappySnapDriver.C at line 2062
    For point:9 coordinate:(4.666667 4.025711 3.735495) did not find any surface within:0.0008333333 metre.
--> FOAM Warning : 
    From static Foam::vectorField Foam::snappySnapDriver::calcNearestSurface(bool, const Foam::meshRefinement&, const Foam::labelList&, const Foam::labelList&, const Foam::indirectPrimitivePatch&, const Foam::pointField&, const Foam::scalarField&, Foam::pointField&, Foam::vectorField&)
    in file snappyHexMeshDriver/snappySnapDriver.C at line 2062
    For point:10 coordinate:(4.75 4.025711 3.735495) did not find any surface within:0.0008333333 metre.
--> FOAM Warning : 
    From static Foam::vectorField Foam::snappySnapDriver::calcNearestSurface(bool, const Foam::meshRefinement&, const Foam::labelList&, const Foam::labelList&, const Foam::indirectPrimitivePatch&, const Foam::pointField&, const Foam::scalarField&, Foam::pointField&, Foam::vectorField&)
    in file snappyHexMeshDriver/snappySnapDriver.C at line 2062
    For point:11 coordinate:(4.75 4.088799 3.71709) did not find any surface within:0.0008333333 metre.
--> FOAM Warning : 
    From static Foam::vectorField Foam::snappySnapDriver::calcNearestSurface(bool, const Foam::meshRefinement&, const Foam::labelList&, const Foam::labelList&, const Foam::indirectPrimitivePatch&, const Foam::pointField&, const Foam::scalarField&, Foam::pointField&, Foam::vectorField&)
    in file snappyHexMeshDriver/snappySnapDriver.C at line 2062
    For point:12 coordinate:(5 4.088799 3.71709) did not find any surface within:0.0008333333 metre.
--> FOAM Warning : 
    From static Foam::vectorField Foam::snappySnapDriver::calcNearestSurface(bool, const Foam::meshRefinement&, const Foam::labelList&, const Foam::labelList&, const Foam::indirectPrimitivePatch&, const Foam::pointField&, const Foam::scalarField&, Foam::pointField&, Foam::vectorField&)
    in file snappyHexMeshDriver/snappySnapDriver.C at line 2062
    For point:13 coordinate:(5 4.025711 3.735495) did not find any surface within:0.0008333333 metre.
--> FOAM Warning : 
    From static Foam::vectorField Foam::snappySnapDriver::calcNearestSurface(bool, const Foam::meshRefinement&, const Foam::labelList&, const Foam::labelList&, const Foam::indirectPrimitivePatch&, const Foam::pointField&, const Foam::scalarField&, Foam::pointField&, Foam::vectorField&)
    in file snappyHexMeshDriver/snappySnapDriver.C at line 2062
    For point:14 coordinate:(5.083333 4.025711 3.735495) did not find any surface within:0.0008333333 metre.
--> FOAM Warning : 
    From static Foam::vectorField Foam::snappySnapDriver::calcNearestSurface(bool, const Foam::meshRefinement&, const Foam::labelList&, const Foam::labelList&, const Foam::indirectPrimitivePatch&, const Foam::pointField&, const Foam::scalarField&, Foam::pointField&, Foam::vectorField&)
    in file snappyHexMeshDriver/snappySnapDriver.C at line 2062
    For point:15 coordinate:(5.083333 4.088799 3.71709) did not find any surface within:0.0008333333 metre.
--> FOAM Warning : 
    From static Foam::vectorField Foam::snappySnapDriver::calcNearestSurface(bool, const Foam::meshRefinement&, const Foam::labelList&, const Foam::labelList&, const Foam::indirectPrimitivePatch&, const Foam::pointField&, const Foam::scalarField&, Foam::pointField&, Foam::vectorField&)
    in file snappyHexMeshDriver/snappySnapDriver.C at line 2062
    For point:16 coordinate:(5.333333 4.088799 3.71709) did not find any surface within:0.0008333333 metre.
--> FOAM Warning : 
    From static Foam::vectorField Foam::snappySnapDriver::calcNearestSurface(bool, const Foam::meshRefinement&, const Foam::labelList&, const Foam::labelList&, const Foam::indirectPrimitivePatch&, const Foam::pointField&, const Foam::scalarField&, Foam::pointField&, Foam::vectorField&)
    in file snappyHexMeshDriver/snappySnapDriver.C at line 2062
    For point:17 coordinate:(5.333333 4.025711 3.735495) did not find any surface within:0.0008333333 metre.
--> FOAM Warning : 
    From static Foam::vectorField Foam::snappySnapDriver::calcNearestSurface(bool, const Foam::meshRefinement&, const Foam::labelList&, const Foam::labelList&, const Foam::indirectPrimitivePatch&, const Foam::pointField&, const Foam::scalarField&, Foam::pointField&, Foam::vectorField&)
    in file snappyHexMeshDriver/snappySnapDriver.C at line 2062
    For point:18 coordinate:(5.416667 4.025711 3.735495) did not find any surface within:0.0008333333 metre.
--> FOAM Warning : 
    From static Foam::vectorField Foam::snappySnapDriver::calcNearestSurface(bool, const Foam::meshRefinement&, const Foam::labelList&, const Foam::labelList&, const Foam::indirectPrimitivePatch&, const Foam::pointField&, const Foam::scalarField&, Foam::pointField&, Foam::vectorField&)
    in file snappyHexMeshDriver/snappySnapDriver.C at line 2062
    For point:19 coordinate:(5.416667 4.088799 3.71709) did not find any surface within:0.0008333333 metre.
--> FOAM Warning : 
    From static Foam::vectorField Foam::snappySnapDriver::calcNearestSurface(bool, const Foam::meshRefinement&, const Foam::labelList&, const Foam::labelList&, const Foam::indirectPrimitivePatch&, const Foam::pointField&, const Foam::scalarField&, Foam::pointField&, Foam::vectorField&)
    in file snappyHexMeshDriver/snappySnapDriver.C at line 2062
    For point:20 coordinate:(5.666667 4.088799 3.71709) did not find any surface within:0.0008333333 metre.
--> FOAM Warning : 
    From static Foam::vectorField Foam::snappySnapDriver::calcNearestSurface(bool, const Foam::meshRefinement&, const Foam::labelList&, const Foam::labelList&, const Foam::indirectPrimitivePatch&, const Foam::pointField&, const Foam::scalarField&, Foam::pointField&, Foam::vectorField&)
    in file snappyHexMeshDriver/snappySnapDriver.C at line 2062
    For point:21 coordinate:(5.666667 4.025711 3.735495) did not find any surface within:0.0008333333 metre.
--> FOAM Warning : 
    From static Foam::vectorField Foam::snappySnapDriver::calcNearestSurface(bool, const Foam::meshRefinement&, const Foam::labelList&, const Foam::labelList&, const Foam::indirectPrimitivePatch&, const Foam::pointField&, const Foam::scalarField&, Foam::pointField&, Foam::vectorField&)
    in file snappyHexMeshDriver/snappySnapDriver.C at line 2062
    For point:22 coordinate:(5.75 4.025711 3.735495) did not find any surface within:0.0008333333 metre.
--> FOAM Warning : 
    From static Foam::vectorField Foam::snappySnapDriver::calcNearestSurface(bool, const Foam::meshRefinement&, const Foam::labelList&, const Foam::labelList&, const Foam::indirectPrimitivePatch&, const Foam::pointField&, const Foam::scalarField&, Foam::pointField&, Foam::vectorField&)
    in file snappyHexMeshDriver/snappySnapDriver.C at line 2062
    For point:23 coordinate:(5.75 4.088799 3.71709) did not find any surface within:0.0008333333 metre.
--> FOAM Warning : 
    From static Foam::vectorField Foam::snappySnapDriver::calcNearestSurface(bool, const Foam::meshRefinement&, const Foam::labelList&, const Foam::labelList&, const Foam::indirectPrimitivePatch&, const Foam::pointField&, const Foam::scalarField&, Foam::pointField&, Foam::vectorField&)
    in file snappyHexMeshDriver/snappySnapDriver.C at line 2062
    For point:24 coordinate:(4.025711 4.416667 3.735495) did not find any surface within:0.0008333333 metre.
--> FOAM Warning : 
    From static Foam::vectorField Foam::snappySnapDriver::calcNearestSurface(bool, const Foam::meshRefinement&, const Foam::labelList&, const Foam::labelList&, const Foam::indirectPrimitivePatch&, const Foam::pointField&, const Foam::scalarField&, Foam::pointField&, Foam::vectorField&)
    in file snappyHexMeshDriver/snappySnapDriver.C at line 2062
    For point:25 coordinate:(4.025711 4.333333 3.735495) did not find any surface within:0.0008333333 metre.
--> FOAM Warning : 
    From static Foam::vectorField Foam::snappySnapDriver::calcNearestSurface(bool, const Foam::meshRefinement&, const Foam::labelList&, const Foam::labelList&, const Foam::indirectPrimitivePatch&, const Foam::pointField&, const Foam::scalarField&, Foam::pointField&, Foam::vectorField&)
    in file snappyHexMeshDriver/snappySnapDriver.C at line 2062
    For point:26 coordinate:(4.088799 4.333333 3.71709) did not find any surface within:0.0008333333 metre.
--> FOAM Warning : 
    From static Foam::vectorField Foam::snappySnapDriver::calcNearestSurface(bool, const Foam::meshRefinement&, const Foam::labelList&, const Foam::labelList&, const Foam::indirectPrimitivePatch&, const Foam::pointField&, const Foam::scalarField&, Foam::pointField&, Foam::vectorField&)
    in file snappyHexMeshDriver/snappySnapDriver.C at line 2062
    For point:27 coordinate:(4.088799 4.416667 3.71709) did not find any surface within:0.0008333333 metre.
--> FOAM Warning : 
    From static Foam::vectorField Foam::snappySnapDriver::calcNearestSurface(bool, const Foam::meshRefinement&, const Foam::labelList&, const Foam::labelList&, const Foam::indirectPrimitivePatch&, const Foam::pointField&, const Foam::scalarField&, Foam::pointField&, Foam::vectorField&)
    in file snappyHexMeshDriver/snappySnapDriver.C at line 2062
    For point:28 coordinate:(4.333333 4.416667 3.712121) did not find any surface within:0.0008333333 metre.
--> FOAM Warning : 
    From static Foam::vectorField Foam::snappySnapDriver::calcNearestSurface(bool, const Foam::meshRefinement&, const Foam::labelList&, const Foam::labelList&, const Foam::indirectPrimitivePatch&, const Foam::pointField&, const Foam::scalarField&, Foam::pointField&, Foam::vectorField&)
    in file snappyHexMeshDriver/snappySnapDriver.C at line 2062
    For point:29 coordinate:(4.333333 4.333333 3.712121) did not find any surface within:0.0008333333 metre.
--> FOAM Warning : 
    From static Foam::vectorField Foam::snappySnapDriver::calcNearestSurface(bool, const Foam::meshRefinement&, const Foam::labelList&, const Foam::labelList&, const Foam::indirectPrimitivePatch&, const Foam::pointField&, const Foam::scalarField&, Foam::pointField&, Foam::vectorField&)
    in file snappyHexMeshDriver/snappySnapDriver.C at line 2062
    For point:30 coordinate:(4.416667 4.333333 3.712121) did not find any surface within:0.0008333333 metre.
--> FOAM Warning : 
    From static Foam::vectorField Foam::snappySnapDriver::calcNearestSurface(bool, const Foam::meshRefinement&, const Foam::labelList&, const Foam::labelList&, const Foam::indirectPrimitivePatch&, const Foam::pointField&, const Foam::scalarField&, Foam::pointField&, Foam::vectorField&)
    in file snappyHexMeshDriver/snappySnapDriver.C at line 2062
    For point:31 coordinate:(4.416667 4.416667 3.712121) did not find any surface within:0.0008333333 metre.
--> FOAM Warning : 
    From static Foam::vectorField Foam::snappySnapDriver::calcNearestSurface(bool, const Foam::meshRefinement&, const Foam::labelList&, const Foam::labelList&, const Foam::indirectPrimitivePatch&, const Foam::pointField&, const Foam::scalarField&, Foam::pointField&, Foam::vectorField&)
    in file snappyHexMeshDriver/snappySnapDriver.C at line 2062
    For point:32 coordinate:(4.666667 4.416667 3.712121) did not find any surface within:0.0008333333 metre.
--> FOAM Warning : 
    From static Foam::vectorField Foam::snappySnapDriver::calcNearestSurface(bool, const Foam::meshRefinement&, const Foam::labelList&, const Foam::labelList&, const Foam::indirectPrimitivePatch&, const Foam::pointField&, const Foam::scalarField&, Foam::pointField&, Foam::vectorField&)
    in file snappyHexMeshDriver/snappySnapDriver.C at line 2062
    For point:33 coordinate:(4.666667 4.333333 3.712121) did not find any surface within:0.0008333333 metre.
--> FOAM Warning : 
    From static Foam::vectorField Foam::snappySnapDriver::calcNearestSurface(bool, const Foam::meshRefinement&, const Foam::labelList&, const Foam::labelList&, const Foam::indirectPrimitivePatch&, const Foam::pointField&, const Foam::scalarField&, Foam::pointField&, Foam::vectorField&)
    in file snappyHexMeshDriver/snappySnapDriver.C at line 2062
    For point:34 coordinate:(4.75 4.333333 3.712121) did not find any surface within:0.0008333333 metre.
--> FOAM Warning : 
    From static Foam::vectorField Foam::snappySnapDriver::calcNearestSurface(bool, const Foam::meshRefinement&, const Foam::labelList&, const Foam::labelList&, const Foam::indirectPrimitivePatch&, const Foam::pointField&, const Foam::scalarField&, Foam::pointField&, Foam::vectorField&)
    in file snappyHexMeshDriver/snappySnapDriver.C at line 2062
    For point:35 coordinate:(4.75 4.416667 3.712121) did not find any surface within:0.0008333333 metre.
--> FOAM Warning : 
    From static Foam::vectorField Foam::snappySnapDriver::calcNearestSurface(bool, const Foam::meshRefinement&, const Foam::labelList&, const Foam::labelList&, const Foam::indirectPrimitivePatch&, const Foam::pointField&, const Foam::scalarField&, Foam::pointField&, Foam::vectorField&)
    in file snappyHexMeshDriver/snappySnapDriver.C at line 2062
    For point:36 coordinate:(5 4.416667 3.712121) did not find any surface within:0.0008333333 metre.
--> FOAM Warning : 
    From static Foam::vectorField Foam::snappySnapDriver::calcNearestSurface(bool, const Foam::meshRefinement&, const Foam::labelList&, const Foam::labelList&, const Foam::indirectPrimitivePatch&, const Foam::pointField&, const Foam::scalarField&, Foam::pointField&, Foam::vectorField&)
    in file snappyHexMeshDriver/snappySnapDriver.C at line 2062
    For point:37 coordinate:(5 4.333333 3.712121) did not find any surface within:0.0008333333 metre.
--> FOAM Warning : 
    From static Foam::vectorField Foam::snappySnapDriver::calcNearestSurface(bool, const Foam::meshRefinement&, const Foam::labelList&, const Foam::labelList&, const Foam::indirectPrimitivePatch&, const Foam::pointField&, const Foam::scalarField&, Foam::pointField&, Foam::vectorField&)
    in file snappyHexMeshDriver/snappySnapDriver.C at line 2062
    For point:38 coordinate:(5.083333 4.333333 3.712121) did not find any surface within:0.0008333333 metre.
--> FOAM Warning : 
    From static Foam::vectorField Foam::snappySnapDriver::calcNearestSurface(bool, const Foam::meshRefinement&, const Foam::labelList&, const Foam::labelList&, const Foam::indirectPrimitivePatch&, const Foam::pointField&, const Foam::scalarField&, Foam::pointField&, Foam::vectorField&)
    in file snappyHexMeshDriver/snappySnapDriver.C at line 2062
    For point:39 coordinate:(5.083333 4.416667 3.712121) did not find any surface within:0.0008333333 metre.
--> FOAM Warning : 
    From static Foam::vectorField Foam::snappySnapDriver::calcNearestSurface(bool, const Foam::meshRefinement&, const Foam::labelList&, const Foam::labelList&, const Foam::indirectPrimitivePatch&, const Foam::pointField&, const Foam::scalarField&, Foam::pointField&, Foam::vectorField&)
    in file snappyHexMeshDriver/snappySnapDriver.C at line 2062
    For point:40 coordinate:(5.333333 4.416667 3.712121) did not find any surface within:0.0008333333 metre.
--> FOAM Warning : 
    From static Foam::vectorField Foam::snappySnapDriver::calcNearestSurface(bool, const Foam::meshRefinement&, const Foam::labelList&, const Foam::labelList&, const Foam::indirectPrimitivePatch&, const Foam::pointField&, const Foam::scalarField&, Foam::pointField&, Foam::vectorField&)
    in file snappyHexMeshDriver/snappySnapDriver.C at line 2062
    For point:41 coordinate:(5.333333 4.333333 3.712121) did not find any surface within:0.0008333333 metre.
--> FOAM Warning : 
    From static Foam::vectorField Foam::snappySnapDriver::calcNearestSurface(bool, const Foam::meshRefinement&, const Foam::labelList&, const Foam::labelList&, const Foam::indirectPrimitivePatch&, const Foam::pointField&, const Foam::scalarField&, Foam::pointField&, Foam::vectorField&)
    in file snappyHexMeshDriver/snappySnapDriver.C at line 2062
    For point:42 coordinate:(5.416667 4.333333 3.712121) did not find any surface within:0.0008333333 metre.
--> FOAM Warning : 
    From static Foam::vectorField Foam::snappySnapDriver::calcNearestSurface(bool, const Foam::meshRefinement&, const Foam::labelList&, const Foam::labelList&, const Foam::indirectPrimitivePatch&, const Foam::pointField&, const Foam::scalarField&, Foam::pointField&, Foam::vectorField&)
    in file snappyHexMeshDriver/snappySnapDriver.C at line 2062
    For point:43 coordinate:(5.416667 4.416667 3.712121) did not find any surface within:0.0008333333 metre.
--> FOAM Warning : 
    From static Foam::vectorField Foam::snappySnapDriver::calcNearestSurface(bool, const Foam::meshRefinement&, const Foam::labelList&, const Foam::labelList&, const Foam::indirectPrimitivePatch&, const Foam::pointField&, const Foam::scalarField&, Foam::pointField&, Foam::vectorField&)
    in file snappyHexMeshDriver/snappySnapDriver.C at line 2062
    For point:44 coordinate:(5.666667 4.416667 3.712121) did not find any surface within:0.0008333333 metre.
--> FOAM Warning : 
    From static Foam::vectorField Foam::snappySnapDriver::calcNearestSurface(bool, const Foam::meshRefinement&, const Foam::labelList&, const Foam::labelList&, const Foam::indirectPrimitivePatch&, const Foam::pointField&, const Foam::scalarField&, Foam::pointField&, Foam::vectorField&)
    in file snappyHexMeshDriver/snappySnapDriver.C at line 2062
    For point:45 coordinate:(5.666667 4.333333 3.712121) did not find any surface within:0.0008333333 metre.
--> FOAM Warning : 
    From static Foam::vectorField Foam::snappySnapDriver::calcNearestSurface(bool, const Foam::meshRefinement&, const Foam::labelList&, const Foam::labelList&, const Foam::indirectPrimitivePatch&, const Foam::pointField&, const Foam::scalarField&, Foam::pointField&, Foam::vectorField&)
    in file snappyHexMeshDriver/snappySnapDriver.C at line 2062
    For point:46 coordinate:(5.75 4.333333 3.712121) did not find any surface within:0.0008333333 metre.
--> FOAM Warning : 
    From static Foam::vectorField Foam::snappySnapDriver::calcNearestSurface(bool, const Foam::meshRefinement&, const Foam::labelList&, const Foam::labelList&, const Foam::indirectPrimitivePatch&, const Foam::pointField&, const Foam::scalarField&, Foam::pointField&, Foam::vectorField&)
    in file snappyHexMeshDriver/snappySnapDriver.C at line 2062
    For point:47 coordinate:(5.75 4.416667 3.712121) did not find any surface within:0.0008333333 metre.
--> FOAM Warning : 
    From static Foam::vectorField Foam::snappySnapDriver::calcNearestSurface(bool, const Foam::meshRefinement&, const Foam::labelList&, const Foam::labelList&, const Foam::indirectPrimitivePatch&, const Foam::pointField&, const Foam::scalarField&, Foam::pointField&, Foam::vectorField&)
    in file snappyHexMeshDriver/snappySnapDriver.C at line 2062
    For point:48 coordinate:(4.025711 4.75 3.735495) did not find any surface within:0.0008333333 metre.
--> FOAM Warning : 
    From static Foam::vectorField Foam::snappySnapDriver::calcNearestSurface(bool, const Foam::meshRefinement&, const Foam::labelList&, const Foam::labelList&, const Foam::indirectPrimitivePatch&, const Foam::pointField&, const Foam::scalarField&, Foam::pointField&, Foam::vectorField&)
    in file snappyHexMeshDriver/snappySnapDriver.C at line 2062
    For point:49 coordinate:(4.025711 4.666667 3.735495) did not find any surface within:0.0008333333 metre.
--> FOAM Warning : 
    From static Foam::vectorField Foam::snappySnapDriver::calcNearestSurface(bool, const Foam::meshRefinement&, const Foam::labelList&, const Foam::labelList&, const Foam::indirectPrimitivePatch&, const Foam::pointField&, const Foam::scalarField&, Foam::pointField&, Foam::vectorField&)
    in file snappyHexMeshDriver/snappySnapDriver.C at line 2062
    For point:50 coordinate:(4.088799 4.666667 3.71709) did not find any surface within:0.0008333333 metre.
--> FOAM Warning : 
    From static Foam::vectorField Foam::snappySnapDriver::calcNearestSurface(bool, const Foam::meshRefinement&, const Foam::labelList&, const Foam::labelList&, const Foam::indirectPrimitivePatch&, const Foam::pointField&, const Foam::scalarField&, Foam::pointField&, Foam::vectorField&)
    in file snappyHexMeshDriver/snappySnapDriver.C at line 2062
    For point:51 coordinate:(4.088799 4.75 3.71709) did not find any surface within:0.0008333333 metre.
--> FOAM Warning : 
    From static Foam::vectorField Foam::snappySnapDriver::calcNearestSurface(bool, const Foam::meshRefinement&, const Foam::labelList&, const Foam::labelList&, const Foam::indirectPrimitivePatch&, const Foam::pointField&, const Foam::scalarField&, Foam::pointField&, Foam::vectorField&)
    in file snappyHexMeshDriver/snappySnapDriver.C at line 2062
    For point:52 coordinate:(4.333333 4.75 3.712121) did not find any surface within:0.0008333333 metre.
--> FOAM Warning : 
    From static Foam::vectorField Foam::snappySnapDriver::calcNearestSurface(bool, const Foam::meshRefinement&, const Foam::labelList&, const Foam::labelList&, const Foam::indirectPrimitivePatch&, const Foam::pointField&, const Foam::scalarField&, Foam::pointField&, Foam::vectorField&)
    in file snappyHexMeshDriver/snappySnapDriver.C at line 2062
    For point:53 coordinate:(4.333333 4.666667 3.712121) did not find any surface within:0.0008333333 metre.
--> FOAM Warning : 
    From static Foam::vectorField Foam::snappySnapDriver::calcNearestSurface(bool, const Foam::meshRefinement&, const Foam::labelList&, const Foam::labelList&, const Foam::indirectPrimitivePatch&, const Foam::pointField&, const Foam::scalarField&, Foam::pointField&, Foam::vectorField&)
    in file snappyHexMeshDriver/snappySnapDriver.C at line 2062
    For point:54 coordinate:(4.416667 4.666667 3.712121) did not find any surface within:0.0008333333 metre.
--> FOAM Warning : 
    From static Foam::vectorField Foam::snappySnapDriver::calcNearestSurface(bool, const Foam::meshRefinement&, const Foam::labelList&, const Foam::labelList&, const Foam::indirectPrimitivePatch&, const Foam::pointField&, const Foam::scalarField&, Foam::pointField&, Foam::vectorField&)
    in file snappyHexMeshDriver/snappySnapDriver.C at line 2062
    For point:55 coordinate:(4.416667 4.75 3.712121) did not find any surface within:0.0008333333 metre.
--> FOAM Warning : 
    From static Foam::vectorField Foam::snappySnapDriver::calcNearestSurface(bool, const Foam::meshRefinement&, const Foam::labelList&, const Foam::labelList&, const Foam::indirectPrimitivePatch&, const Foam::pointField&, const Foam::scalarField&, Foam::pointField&, Foam::vectorField&)
    in file snappyHexMeshDriver/snappySnapDriver.C at line 2062
    For point:56 coordinate:(4.666667 4.75 3.712121) did not find any surface within:0.0008333333 metre.
--> FOAM Warning : 
    From static Foam::vectorField Foam::snappySnapDriver::calcNearestSurface(bool, const Foam::meshRefinement&, const Foam::labelList&, const Foam::labelList&, const Foam::indirectPrimitivePatch&, const Foam::pointField&, const Foam::scalarField&, Foam::pointField&, Foam::vectorField&)
    in file snappyHexMeshDriver/snappySnapDriver.C at line 2062
    For point:57 coordinate:(4.666667 4.666667 3.712121) did not find any surface within:0.0008333333 metre.
--> FOAM Warning : 
    From static Foam::vectorField Foam::snappySnapDriver::calcNearestSurface(bool, const Foam::meshRefinement&, const Foam::labelList&, const Foam::labelList&, const Foam::indirectPrimitivePatch&, const Foam::pointField&, const Foam::scalarField&, Foam::pointField&, Foam::vectorField&)
    in file snappyHexMeshDriver/snappySnapDriver.C at line 2062
    For point:58 coordinate:(4.75 4.666667 3.712121) did not find any surface within:0.0008333333 metre.
--> FOAM Warning : 
    From static Foam::vectorField Foam::snappySnapDriver::calcNearestSurface(bool, const Foam::meshRefinement&, const Foam::labelList&, const Foam::labelList&, const Foam::indirectPrimitivePatch&, const Foam::pointField&, const Foam::scalarField&, Foam::pointField&, Foam::vectorField&)
    in file snappyHexMeshDriver/snappySnapDriver.C at line 2062
    For point:59 coordinate:(4.75 4.75 3.712121) did not find any surface within:0.0008333333 metre.
--> FOAM Warning : 
    From static Foam::vectorField Foam::snappySnapDriver::calcNearestSurface(bool, const Foam::meshRefinement&, const Foam::labelList&, const Foam::labelList&, const Foam::indirectPrimitivePatch&, const Foam::pointField&, const Foam::scalarField&, Foam::pointField&, Foam::vectorField&)
    in file snappyHexMeshDriver/snappySnapDriver.C at line 2062
    For point:60 coordinate:(5 4.75 3.712121) did not find any surface within:0.0008333333 metre.
--> FOAM Warning : 
    From static Foam::vectorField Foam::snappySnapDriver::calcNearestSurface(bool, const Foam::meshRefinement&, const Foam::labelList&, const Foam::labelList&, const Foam::indirectPrimitivePatch&, const Foam::pointField&, const Foam::scalarField&, Foam::pointField&, Foam::vectorField&)
    in file snappyHexMeshDriver/snappySnapDriver.C at line 2062
    For point:61 coordinate:(5 4.666667 3.712121) did not find any surface within:0.0008333333 metre.
--> FOAM Warning : 
    From static Foam::vectorField Foam::snappySnapDriver::calcNearestSurface(bool, const Foam::meshRefinement&, const Foam::labelList&, const Foam::labelList&, const Foam::indirectPrimitivePatch&, const Foam::pointField&, const Foam::scalarField&, Foam::pointField&, Foam::vectorField&)
    in file snappyHexMeshDriver/snappySnapDriver.C at line 2062
    For point:62 coordinate:(5.083333 4.666667 3.712121) did not find any surface within:0.0008333333 metre.
--> FOAM Warning : 
    From static Foam::vectorField Foam::snappySnapDriver::calcNearestSurface(bool, const Foam::meshRefinement&, const Foam::labelList&, const Foam::labelList&, const Foam::indirectPrimitivePatch&, const Foam::pointField&, const Foam::scalarField&, Foam::pointField&, Foam::vectorField&)
    in file snappyHexMeshDriver/snappySnapDriver.C at line 2062
    For point:63 coordinate:(5.083333 4.75 3.712121) did not find any surface within:0.0008333333 metre.
--> FOAM Warning : 
    From static Foam::vectorField Foam::snappySnapDriver::calcNearestSurface(bool, const Foam::meshRefinement&, const Foam::labelList&, const Foam::labelList&, const Foam::indirectPrimitivePatch&, const Foam::pointField&, const Foam::scalarField&, Foam::pointField&, Foam::vectorField&)
    in file snappyHexMeshDriver/snappySnapDriver.C at line 2062
    For point:64 coordinate:(5.333333 4.75 3.712121) did not find any surface within:0.0008333333 metre.
--> FOAM Warning : 
    From static Foam::vectorField Foam::snappySnapDriver::calcNearestSurface(bool, const Foam::meshRefinement&, const Foam::labelList&, const Foam::labelList&, const Foam::indirectPrimitivePatch&, const Foam::pointField&, const Foam::scalarField&, Foam::pointField&, Foam::vectorField&)
    in file snappyHexMeshDriver/snappySnapDriver.C at line 2062
    For point:65 coordinate:(5.333333 4.666667 3.712121) did not find any surface within:0.0008333333 metre.
--> FOAM Warning : 
    From static Foam::vectorField Foam::snappySnapDriver::calcNearestSurface(bool, const Foam::meshRefinement&, const Foam::labelList&, const Foam::labelList&, const Foam::indirectPrimitivePatch&, const Foam::pointField&, const Foam::scalarField&, Foam::pointField&, Foam::vectorField&)
    in file snappyHexMeshDriver/snappySnapDriver.C at line 2062
    For point:66 coordinate:(5.416667 4.666667 3.712121) did not find any surface within:0.0008333333 metre.
--> FOAM Warning : 
    From static Foam::vectorField Foam::snappySnapDriver::calcNearestSurface(bool, const Foam::meshRefinement&, const Foam::labelList&, const Foam::labelList&, const Foam::indirectPrimitivePatch&, const Foam::pointField&, const Foam::scalarField&, Foam::pointField&, Foam::vectorField&)
    in file snappyHexMeshDriver/snappySnapDriver.C at line 2062
    For point:67 coordinate:(5.416667 4.75 3.712121) did not find any surface within:0.0008333333 metre.
--> FOAM Warning : 
    From static Foam::vectorField Foam::snappySnapDriver::calcNearestSurface(bool, const Foam::meshRefinement&, const Foam::labelList&, const Foam::labelList&, const Foam::indirectPrimitivePatch&, const Foam::pointField&, const Foam::scalarField&, Foam::pointField&, Foam::vectorField&)
    in file snappyHexMeshDriver/snappySnapDriver.C at line 2062
    For point:68 coordinate:(5.666667 4.75 3.712121) did not find any surface within:0.0008333333 metre.
--> FOAM Warning : 
    From static Foam::vectorField Foam::snappySnapDriver::calcNearestSurface(bool, const Foam::meshRefinement&, const Foam::labelList&, const Foam::labelList&, const Foam::indirectPrimitivePatch&, const Foam::pointField&, const Foam::scalarField&, Foam::pointField&, Foam::vectorField&)
    in file snappyHexMeshDriver/snappySnapDriver.C at line 2062
    For point:69 coordinate:(5.666667 4.666667 3.712121) did not find any surface within:0.0008333333 metre.
--> FOAM Warning : 
    From static Foam::vectorField Foam::snappySnapDriver::calcNearestSurface(bool, const Foam::meshRefinement&, const Foam::labelList&, const Foam::labelList&, const Foam::indirectPrimitivePatch&, const Foam::pointField&, const Foam::scalarField&, Foam::pointField&, Foam::vectorField&)
    in file snappyHexMeshDriver/snappySnapDriver.C at line 2062
    For point:70 coordinate:(5.75 4.666667 3.712121) did not find any surface within:0.0008333333 metre.
--> FOAM Warning : 
    From static Foam::vectorField Foam::snappySnapDriver::calcNearestSurface(bool, const Foam::meshRefinement&, const Foam::labelList&, const Foam::labelList&, const Foam::indirectPrimitivePatch&, const Foam::pointField&, const Foam::scalarField&, Foam::pointField&, Foam::vectorField&)
    in file snappyHexMeshDriver/snappySnapDriver.C at line 2062
    For point:71 coordinate:(5.75 4.75 3.712121) did not find any surface within:0.0008333333 metre.
--> FOAM Warning : 
    From static Foam::vectorField Foam::snappySnapDriver::calcNearestSurface(bool, const Foam::meshRefinement&, const Foam::labelList&, const Foam::labelList&, const Foam::indirectPrimitivePatch&, const Foam::pointField&, const Foam::scalarField&, Foam::pointField&, Foam::vectorField&)
    in file snappyHexMeshDriver/snappySnapDriver.C at line 2062
    For point:72 coordinate:(4.025711 5.083333 3.735495) did not find any surface within:0.0008333333 metre.
--> FOAM Warning : 
    From static Foam::vectorField Foam::snappySnapDriver::calcNearestSurface(bool, const Foam::meshRefinement&, const Foam::labelList&, const Foam::labelList&, const Foam::indirectPrimitivePatch&, const Foam::pointField&, const Foam::scalarField&, Foam::pointField&, Foam::vectorField&)
    in file snappyHexMeshDriver/snappySnapDriver.C at line 2062
    For point:73 coordinate:(4.025711 5 3.735495) did not find any surface within:0.0008333333 metre.
--> FOAM Warning : 
    From static Foam::vectorField Foam::snappySnapDriver::calcNearestSurface(bool, const Foam::meshRefinement&, const Foam::labelList&, const Foam::labelList&, const Foam::indirectPrimitivePatch&, const Foam::pointField&, const Foam::scalarField&, Foam::pointField&, Foam::vectorField&)
    in file snappyHexMeshDriver/snappySnapDriver.C at line 2062
    For point:74 coordinate:(4.088799 5 3.71709) did not find any surface within:0.0008333333 metre.
--> FOAM Warning : 
    From static Foam::vectorField Foam::snappySnapDriver::calcNearestSurface(bool, const Foam::meshRefinement&, const Foam::labelList&, const Foam::labelList&, const Foam::indirectPrimitivePatch&, const Foam::pointField&, const Foam::scalarField&, Foam::pointField&, Foam::vectorField&)
    in file snappyHexMeshDriver/snappySnapDriver.C at line 2062
    For point:75 coordinate:(4.088799 5.083333 3.71709) did not find any surface within:0.0008333333 metre.
--> FOAM Warning : 
    From static Foam::vectorField Foam::snappySnapDriver::calcNearestSurface(bool, const Foam::meshRefinement&, const Foam::labelList&, const Foam::labelList&, const Foam::indirectPrimitivePatch&, const Foam::pointField&, const Foam::scalarField&, Foam::pointField&, Foam::vectorField&)
    in file snappyHexMeshDriver/snappySnapDriver.C at line 2062
    For point:76 coordinate:(4.333333 5.083333 3.712121) did not find any surface within:0.0008333333 metre.
--> FOAM Warning : 
    From static Foam::vectorField Foam::snappySnapDriver::calcNearestSurface(bool, const Foam::meshRefinement&, const Foam::labelList&, const Foam::labelList&, const Foam::indirectPrimitivePatch&, const Foam::pointField&, const Foam::scalarField&, Foam::pointField&, Foam::vectorField&)
    in file snappyHexMeshDriver/snappySnapDriver.C at line 2062
    For point:77 coordinate:(4.333333 5 3.712121) did not find any surface within:0.0008333333 metre.
--> FOAM Warning : 
    From static Foam::vectorField Foam::snappySnapDriver::calcNearestSurface(bool, const Foam::meshRefinement&, const Foam::labelList&, const Foam::labelList&, const Foam::indirectPrimitivePatch&, const Foam::pointField&, const Foam::scalarField&, Foam::pointField&, Foam::vectorField&)
    in file snappyHexMeshDriver/snappySnapDriver.C at line 2062
    For point:78 coordinate:(4.416667 5 3.712121) did not find any surface within:0.0008333333 metre.
--> FOAM Warning : 
    From static Foam::vectorField Foam::snappySnapDriver::calcNearestSurface(bool, const Foam::meshRefinement&, const Foam::labelList&, const Foam::labelList&, const Foam::indirectPrimitivePatch&, const Foam::pointField&, const Foam::scalarField&, Foam::pointField&, Foam::vectorField&)
    in file snappyHexMeshDriver/snappySnapDriver.C at line 2062
    For point:79 coordinate:(4.416667 5.083333 3.712121) did not find any surface within:0.0008333333 metre.
--> FOAM Warning : 
    From static Foam::vectorField Foam::snappySnapDriver::calcNearestSurface(bool, const Foam::meshRefinement&, const Foam::labelList&, const Foam::labelList&, const Foam::indirectPrimitivePatch&, const Foam::pointField&, const Foam::scalarField&, Foam::pointField&, Foam::vectorField&)
    in file snappyHexMeshDriver/snappySnapDriver.C at line 2062
    For point:80 coordinate:(4.666667 5.083333 3.712121) did not find any surface within:0.0008333333 metre.
--> FOAM Warning : 
    From static Foam::vectorField Foam::snappySnapDriver::calcNearestSurface(bool, const Foam::meshRefinement&, const Foam::labelList&, const Foam::labelList&, const Foam::indirectPrimitivePatch&, const Foam::pointField&, const Foam::scalarField&, Foam::pointField&, Foam::vectorField&)
    in file snappyHexMeshDriver/snappySnapDriver.C at line 2062
    For point:81 coordinate:(4.666667 5 3.712121) did not find any surface within:0.0008333333 metre.
--> FOAM Warning : 
    From static Foam::vectorField Foam::snappySnapDriver::calcNearestSurface(bool, const Foam::meshRefinement&, const Foam::labelList&, const Foam::labelList&, const Foam::indirectPrimitivePatch&, const Foam::pointField&, const Foam::scalarField&, Foam::pointField&, Foam::vectorField&)
    in file snappyHexMeshDriver/snappySnapDriver.C at line 2062
    For point:82 coordinate:(4.75 5 3.712121) did not find any surface within:0.0008333333 metre.
--> FOAM Warning : 
    From static Foam::vectorField Foam::snappySnapDriver::calcNearestSurface(bool, const Foam::meshRefinement&, const Foam::labelList&, const Foam::labelList&, const Foam::indirectPrimitivePatch&, const Foam::pointField&, const Foam::scalarField&, Foam::pointField&, Foam::vectorField&)
    in file snappyHexMeshDriver/snappySnapDriver.C at line 2062
    For point:83 coordinate:(4.75 5.083333 3.712121) did not find any surface within:0.0008333333 metre.
--> FOAM Warning : 
    From static Foam::vectorField Foam::snappySnapDriver::calcNearestSurface(bool, const Foam::meshRefinement&, const Foam::labelList&, const Foam::labelList&, const Foam::indirectPrimitivePatch&, const Foam::pointField&, const Foam::scalarField&, Foam::pointField&, Foam::vectorField&)
    in file snappyHexMeshDriver/snappySnapDriver.C at line 2062
    For point:84 coordinate:(5 5.083333 3.712121) did not find any surface within:0.0008333333 metre.
--> FOAM Warning : 
    From static Foam::vectorField Foam::snappySnapDriver::calcNearestSurface(bool, const Foam::meshRefinement&, const Foam::labelList&, const Foam::labelList&, const Foam::indirectPrimitivePatch&, const Foam::pointField&, const Foam::scalarField&, Foam::pointField&, Foam::vectorField&)
    in file snappyHexMeshDriver/snappySnapDriver.C at line 2062
    For point:85 coordinate:(5 5 3.712121) did not find any surface within:0.0008333333 metre.
--> FOAM Warning : 
    From static Foam::vectorField Foam::snappySnapDriver::calcNearestSurface(bool, const Foam::meshRefinement&, const Foam::labelList&, const Foam::labelList&, const Foam::indirectPrimitivePatch&, const Foam::pointField&, const Foam::scalarField&, Foam::pointField&, Foam::vectorField&)
    in file snappyHexMeshDriver/snappySnapDriver.C at line 2062
    For point:86 coordinate:(5.083333 5 3.712121) did not find any surface within:0.0008333333 metre.
--> FOAM Warning : 
    From static Foam::vectorField Foam::snappySnapDriver::calcNearestSurface(bool, const Foam::meshRefinement&, const Foam::labelList&, const Foam::labelList&, const Foam::indirectPrimitivePatch&, const Foam::pointField&, const Foam::scalarField&, Foam::pointField&, Foam::vectorField&)
    in file snappyHexMeshDriver/snappySnapDriver.C at line 2062
    For point:87 coordinate:(5.083333 5.083333 3.712121) did not find any surface within:0.0008333333 metre.
--> FOAM Warning : 
    From static Foam::vectorField Foam::snappySnapDriver::calcNearestSurface(bool, const Foam::meshRefinement&, const Foam::labelList&, const Foam::labelList&, const Foam::indirectPrimitivePatch&, const Foam::pointField&, const Foam::scalarField&, Foam::pointField&, Foam::vectorField&)
    in file snappyHexMeshDriver/snappySnapDriver.C at line 2062
    For point:88 coordinate:(5.333333 5.083333 3.712121) did not find any surface within:0.0008333333 metre.
--> FOAM Warning : 
    From static Foam::vectorField Foam::snappySnapDriver::calcNearestSurface(bool, const Foam::meshRefinement&, const Foam::labelList&, const Foam::labelList&, const Foam::indirectPrimitivePatch&, const Foam::pointField&, const Foam::scalarField&, Foam::pointField&, Foam::vectorField&)
    in file snappyHexMeshDriver/snappySnapDriver.C at line 2062
    For point:89 coordinate:(5.333333 5 3.712121) did not find any surface within:0.0008333333 metre.
--> FOAM Warning : 
    From static Foam::vectorField Foam::snappySnapDriver::calcNearestSurface(bool, const Foam::meshRefinement&, const Foam::labelList&, const Foam::labelList&, const Foam::indirectPrimitivePatch&, const Foam::pointField&, const Foam::scalarField&, Foam::pointField&, Foam::vectorField&)
    in file snappyHexMeshDriver/snappySnapDriver.C at line 2062
    For point:90 coordinate:(5.416667 5 3.712121) did not find any surface within:0.0008333333 metre.
--> FOAM Warning : 
    From static Foam::vectorField Foam::snappySnapDriver::calcNearestSurface(bool, const Foam::meshRefinement&, const Foam::labelList&, const Foam::labelList&, const Foam::indirectPrimitivePatch&, const Foam::pointField&, const Foam::scalarField&, Foam::pointField&, Foam::vectorField&)
    in file snappyHexMeshDriver/snappySnapDriver.C at line 2062
    For point:91 coordinate:(5.416667 5.083333 3.712121) did not find any surface within:0.0008333333 metre.
--> FOAM Warning : 
    From static Foam::vectorField Foam::snappySnapDriver::calcNearestSurface(bool, const Foam::meshRefinement&, const Foam::labelList&, const Foam::labelList&, const Foam::indirectPrimitivePatch&, const Foam::pointField&, const Foam::scalarField&, Foam::pointField&, Foam::vectorField&)
    in file snappyHexMeshDriver/snappySnapDriver.C at line 2062
    For point:92 coordinate:(5.666667 5.083333 3.712121) did not find any surface within:0.0008333333 metre.
--> FOAM Warning : 
    From static Foam::vectorField Foam::snappySnapDriver::calcNearestSurface(bool, const Foam::meshRefinement&, const Foam::labelList&, const Foam::labelList&, const Foam::indirectPrimitivePatch&, const Foam::pointField&, const Foam::scalarField&, Foam::pointField&, Foam::vectorField&)
    in file snappyHexMeshDriver/snappySnapDriver.C at line 2062
    For point:93 coordinate:(5.666667 5 3.712121) did not find any surface within:0.0008333333 metre.
--> FOAM Warning : 
    From static Foam::vectorField Foam::snappySnapDriver::calcNearestSurface(bool, const Foam::meshRefinement&, const Foam::labelList&, const Foam::labelList&, const Foam::indirectPrimitivePatch&, const Foam::pointField&, const Foam::scalarField&, Foam::pointField&, Foam::vectorField&)
    in file snappyHexMeshDriver/snappySnapDriver.C at line 2062
    For point:94 coordinate:(5.75 5 3.712121) did not find any surface within:0.0008333333 metre.
--> FOAM Warning : 
    From static Foam::vectorField Foam::snappySnapDriver::calcNearestSurface(bool, const Foam::meshRefinement&, const Foam::labelList&, const Foam::labelList&, const Foam::indirectPrimitivePatch&, const Foam::pointField&, const Foam::scalarField&, Foam::pointField&, Foam::vectorField&)
    in file snappyHexMeshDriver/snappySnapDriver.C at line 2062
    For point:95 coordinate:(5.75 5.083333 3.712121) did not find any surface within:0.0008333333 metre.
--> FOAM Warning : 
    From static Foam::vectorField Foam::snappySnapDriver::calcNearestSurface(bool, const Foam::meshRefinement&, const Foam::labelList&, const Foam::labelList&, const Foam::indirectPrimitivePatch&, const Foam::pointField&, const Foam::scalarField&, Foam::pointField&, Foam::vectorField&)
    in file snappyHexMeshDriver/snappySnapDriver.C at line 2062
    For point:96 coordinate:(4.025711 5.416667 3.735495) did not find any surface within:0.0008333333 metre.
--> FOAM Warning : 
    From static Foam::vectorField Foam::snappySnapDriver::calcNearestSurface(bool, const Foam::meshRefinement&, const Foam::labelList&, const Foam::labelList&, const Foam::indirectPrimitivePatch&, const Foam::pointField&, const Foam::scalarField&, Foam::pointField&, Foam::vectorField&)
    in file snappyHexMeshDriver/snappySnapDriver.C at line 2062
    For point:97 coordinate:(4.025711 5.333333 3.735495) did not find any surface within:0.0008333333 metre.
--> FOAM Warning : 
    From static Foam::vectorField Foam::snappySnapDriver::calcNearestSurface(bool, const Foam::meshRefinement&, const Foam::labelList&, const Foam::labelList&, const Foam::indirectPrimitivePatch&, const Foam::pointField&, const Foam::scalarField&, Foam::pointField&, Foam::vectorField&)
    in file snappyHexMeshDriver/snappySnapDriver.C at line 2062
    For point:98 coordinate:(4.088799 5.333333 3.71709) did not find any surface within:0.0008333333 metre.
--> FOAM Warning : 
    From static Foam::vectorField Foam::snappySnapDriver::calcNearestSurface(bool, const Foam::meshRefinement&, const Foam::labelList&, const Foam::labelList&, const Foam::indirectPrimitivePatch&, const Foam::pointField&, const Foam::scalarField&, Foam::pointField&, Foam::vectorField&)
    in file snappyHexMeshDriver/snappySnapDriver.C at line 2062
    For point:99 coordinate:(4.088799 5.416667 3.71709) did not find any surface within:0.0008333333 metre.
--> FOAM Warning : 
    From static Foam::vectorField Foam::snappySnapDriver::calcNearestSurface(bool, const Foam::meshRefinement&, const Foam::labelList&, const Foam::labelList&, const Foam::indirectPrimitivePatch&, const Foam::pointField&, const Foam::scalarField&, Foam::pointField&, Foam::vectorField&)
    in file snappyHexMeshDriver/snappySnapDriver.C at line 2070
    Reached warning limit 100. Suppressing further warnings.
Wanted displacement : average:0 min:0 max:0
Calculated surface displacement in = 0 s


Detecting near surfaces ...
Overriding nearest with intersection of close gaps at 0 out of 1538 points.
Overriding displacement on features :
   implicit features    : false
   explicit features    : true
   multi-patch features : false

--> FOAM Warning : 
    From void Foam::snappySnapDriver::calcNearestFace(Foam::label, const Foam::indirectPrimitivePatch&, const Foam::pointField&, const Foam::scalarField&, Foam::vectorField&, Foam::vectorField&, Foam::labelList&) const
    in file snappyHexMeshDriver/snappySnapDriverFeature.C at line 420
    Did not find surface near face centre (4.060882 4.060882 3.734104)
--> FOAM Warning : 
    From void Foam::snappySnapDriver::calcNearestFace(Foam::label, const Foam::indirectPrimitivePatch&, const Foam::pointField&, const Foam::scalarField&, Foam::vectorField&, Foam::vectorField&, Foam::labelList&) const
    in file snappyHexMeshDriver/snappySnapDriverFeature.C at line 420
    Did not find surface near face centre (4.375 4.057255 3.726292)
--> FOAM Warning : 
    From void Foam::snappySnapDriver::calcNearestFace(Foam::label, const Foam::indirectPrimitivePatch&, const Foam::pointField&, const Foam::scalarField&, Foam::vectorField&, Foam::vectorField&, Foam::labelList&) const
    in file snappyHexMeshDriver/snappySnapDriverFeature.C at line 420
    Did not find surface near face centre (4.708333 4.057255 3.726292)
--> FOAM Warning : 
    From void Foam::snappySnapDriver::calcNearestFace(Foam::label, const Foam::indirectPrimitivePatch&, const Foam::pointField&, const Foam::scalarField&, Foam::vectorField&, Foam::vectorField&, Foam::labelList&) const
    in file snappyHexMeshDriver/snappySnapDriverFeature.C at line 420
    Did not find surface near face centre (5.041667 4.057255 3.726292)
--> FOAM Warning : 
    From void Foam::snappySnapDriver::calcNearestFace(Foam::label, const Foam::indirectPrimitivePatch&, const Foam::pointField&, const Foam::scalarField&, Foam::vectorField&, Foam::vectorField&, Foam::labelList&) const
    in file snappyHexMeshDriver/snappySnapDriverFeature.C at line 420
    Did not find surface near face centre (5.375 4.057255 3.726292)
--> FOAM Warning : 
    From void Foam::snappySnapDriver::calcNearestFace(Foam::label, const Foam::indirectPrimitivePatch&, const Foam::pointField&, const Foam::scalarField&, Foam::vectorField&, Foam::vectorField&, Foam::labelList&) const
    in file snappyHexMeshDriver/snappySnapDriverFeature.C at line 420
    Did not find surface near face centre (5.708333 4.057255 3.726292)
--> FOAM Warning : 
    From void Foam::snappySnapDriver::calcNearestFace(Foam::label, const Foam::indirectPrimitivePatch&, const Foam::pointField&, const Foam::scalarField&, Foam::vectorField&, Foam::vectorField&, Foam::labelList&) const
    in file snappyHexMeshDriver/snappySnapDriverFeature.C at line 420
    Did not find surface near face centre (4.057255 4.375 3.726292)
--> FOAM Warning : 
    From void Foam::snappySnapDriver::calcNearestFace(Foam::label, const Foam::indirectPrimitivePatch&, const Foam::pointField&, const Foam::scalarField&, Foam::vectorField&, Foam::vectorField&, Foam::labelList&) const
    in file snappyHexMeshDriver/snappySnapDriverFeature.C at line 420
    Did not find surface near face centre (4.375 4.375 3.712121)
--> FOAM Warning : 
    From void Foam::snappySnapDriver::calcNearestFace(Foam::label, const Foam::indirectPrimitivePatch&, const Foam::pointField&, const Foam::scalarField&, Foam::vectorField&, Foam::vectorField&, Foam::labelList&) const
    in file snappyHexMeshDriver/snappySnapDriverFeature.C at line 420
    Did not find surface near face centre (4.708333 4.375 3.712121)
--> FOAM Warning : 
    From void Foam::snappySnapDriver::calcNearestFace(Foam::label, const Foam::indirectPrimitivePatch&, const Foam::pointField&, const Foam::scalarField&, Foam::vectorField&, Foam::vectorField&, Foam::labelList&) const
    in file snappyHexMeshDriver/snappySnapDriverFeature.C at line 420
    Did not find surface near face centre (5.041667 4.375 3.712121)
--> FOAM Warning : 
    From void Foam::snappySnapDriver::calcNearestFace(Foam::label, const Foam::indirectPrimitivePatch&, const Foam::pointField&, const Foam::scalarField&, Foam::vectorField&, Foam::vectorField&, Foam::labelList&) const
    in file snappyHexMeshDriver/snappySnapDriverFeature.C at line 420
    Did not find surface near face centre (5.375 4.375 3.712121)
--> FOAM Warning : 
    From void Foam::snappySnapDriver::calcNearestFace(Foam::label, const Foam::indirectPrimitivePatch&, const Foam::pointField&, const Foam::scalarField&, Foam::vectorField&, Foam::vectorField&, Foam::labelList&) const
    in file snappyHexMeshDriver/snappySnapDriverFeature.C at line 420
    Did not find surface near face centre (5.708333 4.375 3.712121)
--> FOAM Warning : 
    From void Foam::snappySnapDriver::calcNearestFace(Foam::label, const Foam::indirectPrimitivePatch&, const Foam::pointField&, const Foam::scalarField&, Foam::vectorField&, Foam::vectorField&, Foam::labelList&) const
    in file snappyHexMeshDriver/snappySnapDriverFeature.C at line 420
    Did not find surface near face centre (4.057255 4.708333 3.726292)
--> FOAM Warning : 
    From void Foam::snappySnapDriver::calcNearestFace(Foam::label, const Foam::indirectPrimitivePatch&, const Foam::pointField&, const Foam::scalarField&, Foam::vectorField&, Foam::vectorField&, Foam::labelList&) const
    in file snappyHexMeshDriver/snappySnapDriverFeature.C at line 420
    Did not find surface near face centre (4.375 4.708333 3.712121)
--> FOAM Warning : 
    From void Foam::snappySnapDriver::calcNearestFace(Foam::label, const Foam::indirectPrimitivePatch&, const Foam::pointField&, const Foam::scalarField&, Foam::vectorField&, Foam::vectorField&, Foam::labelList&) const
    in file snappyHexMeshDriver/snappySnapDriverFeature.C at line 420
    Did not find surface near face centre (4.708333 4.708333 3.712121)
--> FOAM Warning : 
    From void Foam::snappySnapDriver::calcNearestFace(Foam::label, const Foam::indirectPrimitivePatch&, const Foam::pointField&, const Foam::scalarField&, Foam::vectorField&, Foam::vectorField&, Foam::labelList&) const
    in file snappyHexMeshDriver/snappySnapDriverFeature.C at line 420
    Did not find surface near face centre (5.041667 4.708333 3.712121)
--> FOAM Warning : 
    From void Foam::snappySnapDriver::calcNearestFace(Foam::label, const Foam::indirectPrimitivePatch&, const Foam::pointField&, const Foam::scalarField&, Foam::vectorField&, Foam::vectorField&, Foam::labelList&) const
    in file snappyHexMeshDriver/snappySnapDriverFeature.C at line 420
    Did not find surface near face centre (5.375 4.708333 3.712121)
--> FOAM Warning : 
    From void Foam::snappySnapDriver::calcNearestFace(Foam::label, const Foam::indirectPrimitivePatch&, const Foam::pointField&, const Foam::scalarField&, Foam::vectorField&, Foam::vectorField&, Foam::labelList&) const
    in file snappyHexMeshDriver/snappySnapDriverFeature.C at line 420
    Did not find surface near face centre (5.708333 4.708333 3.712121)
--> FOAM Warning : 
    From void Foam::snappySnapDriver::calcNearestFace(Foam::label, const Foam::indirectPrimitivePatch&, const Foam::pointField&, const Foam::scalarField&, Foam::vectorField&, Foam::vectorField&, Foam::labelList&) const
    in file snappyHexMeshDriver/snappySnapDriverFeature.C at line 420
    Did not find surface near face centre (4.057255 5.041667 3.726292)
--> FOAM Warning : 
    From void Foam::snappySnapDriver::calcNearestFace(Foam::label, const Foam::indirectPrimitivePatch&, const Foam::pointField&, const Foam::scalarField&, Foam::vectorField&, Foam::vectorField&, Foam::labelList&) const
    in file snappyHexMeshDriver/snappySnapDriverFeature.C at line 420
    Did not find surface near face centre (4.375 5.041667 3.712121)
--> FOAM Warning : 
    From void Foam::snappySnapDriver::calcNearestFace(Foam::label, const Foam::indirectPrimitivePatch&, const Foam::pointField&, const Foam::scalarField&, Foam::vectorField&, Foam::vectorField&, Foam::labelList&) const
    in file snappyHexMeshDriver/snappySnapDriverFeature.C at line 420
    Did not find surface near face centre (4.708333 5.041667 3.712121)
--> FOAM Warning : 
    From void Foam::snappySnapDriver::calcNearestFace(Foam::label, const Foam::indirectPrimitivePatch&, const Foam::pointField&, const Foam::scalarField&, Foam::vectorField&, Foam::vectorField&, Foam::labelList&) const
    in file snappyHexMeshDriver/snappySnapDriverFeature.C at line 420
    Did not find surface near face centre (5.041667 5.041667 3.712121)
--> FOAM Warning : 
    From void Foam::snappySnapDriver::calcNearestFace(Foam::label, const Foam::indirectPrimitivePatch&, const Foam::pointField&, const Foam::scalarField&, Foam::vectorField&, Foam::vectorField&, Foam::labelList&) const
    in file snappyHexMeshDriver/snappySnapDriverFeature.C at line 420
    Did not find surface near face centre (5.375 5.041667 3.712121)
--> FOAM Warning : 
    From void Foam::snappySnapDriver::calcNearestFace(Foam::label, const Foam::indirectPrimitivePatch&, const Foam::pointField&, const Foam::scalarField&, Foam::vectorField&, Foam::vectorField&, Foam::labelList&) const
    in file snappyHexMeshDriver/snappySnapDriverFeature.C at line 420
    Did not find surface near face centre (5.708333 5.041667 3.712121)
--> FOAM Warning : 
    From void Foam::snappySnapDriver::calcNearestFace(Foam::label, const Foam::indirectPrimitivePatch&, const Foam::pointField&, const Foam::scalarField&, Foam::vectorField&, Foam::vectorField&, Foam::labelList&) const
    in file snappyHexMeshDriver/snappySnapDriverFeature.C at line 420
    Did not find surface near face centre (4.057255 5.375 3.726292)
--> FOAM Warning : 
    From void Foam::snappySnapDriver::calcNearestFace(Foam::label, const Foam::indirectPrimitivePatch&, const Foam::pointField&, const Foam::scalarField&, Foam::vectorField&, Foam::vectorField&, Foam::labelList&) const
    in file snappyHexMeshDriver/snappySnapDriverFeature.C at line 420
    Did not find surface near face centre (4.375 5.375 3.712121)
--> FOAM Warning : 
    From void Foam::snappySnapDriver::calcNearestFace(Foam::label, const Foam::indirectPrimitivePatch&, const Foam::pointField&, const Foam::scalarField&, Foam::vectorField&, Foam::vectorField&, Foam::labelList&) const
    in file snappyHexMeshDriver/snappySnapDriverFeature.C at line 420
    Did not find surface near face centre (4.708333 5.375 3.712121)
--> FOAM Warning : 
    From void Foam::snappySnapDriver::calcNearestFace(Foam::label, const Foam::indirectPrimitivePatch&, const Foam::pointField&, const Foam::scalarField&, Foam::vectorField&, Foam::vectorField&, Foam::labelList&) const
    in file snappyHexMeshDriver/snappySnapDriverFeature.C at line 420
    Did not find surface near face centre (5.041667 5.375 3.712121)
--> FOAM Warning : 
    From void Foam::snappySnapDriver::calcNearestFace(Foam::label, const Foam::indirectPrimitivePatch&, const Foam::pointField&, const Foam::scalarField&, Foam::vectorField&, Foam::vectorField&, Foam::labelList&) const
    in file snappyHexMeshDriver/snappySnapDriverFeature.C at line 420
    Did not find surface near face centre (5.375 5.375 3.712121)
--> FOAM Warning : 
    From void Foam::snappySnapDriver::calcNearestFace(Foam::label, const Foam::indirectPrimitivePatch&, const Foam::pointField&, const Foam::scalarField&, Foam::vectorField&, Foam::vectorField&, Foam::labelList&) const
    in file snappyHexMeshDriver/snappySnapDriverFeature.C at line 420
    Did not find surface near face centre (5.708333 5.375 3.712121)
--> FOAM Warning : 
    From void Foam::snappySnapDriver::calcNearestFace(Foam::label, const Foam::indirectPrimitivePatch&, const Foam::pointField&, const Foam::scalarField&, Foam::vectorField&, Foam::vectorField&, Foam::labelList&) const
    in file snappyHexMeshDriver/snappySnapDriverFeature.C at line 420
    Did not find surface near face centre (4.057255 5.708333 3.726292)
--> FOAM Warning : 
    From void Foam::snappySnapDriver::calcNearestFace(Foam::label, const Foam::indirectPrimitivePatch&, const Foam::pointField&, const Foam::scalarField&, Foam::vectorField&, Foam::vectorField&, Foam::labelList&) const
    in file snappyHexMeshDriver/snappySnapDriverFeature.C at line 420
    Did not find surface near face centre (4.375 5.708333 3.712121)
--> FOAM Warning : 
    From void Foam::snappySnapDriver::calcNearestFace(Foam::label, const Foam::indirectPrimitivePatch&, const Foam::pointField&, const Foam::scalarField&, Foam::vectorField&, Foam::vectorField&, Foam::labelList&) const
    in file snappyHexMeshDriver/snappySnapDriverFeature.C at line 420
    Did not find surface near face centre (4.708333 5.708333 3.712121)
--> FOAM Warning : 
    From void Foam::snappySnapDriver::calcNearestFace(Foam::label, const Foam::indirectPrimitivePatch&, const Foam::pointField&, const Foam::scalarField&, Foam::vectorField&, Foam::vectorField&, Foam::labelList&) const
    in file snappyHexMeshDriver/snappySnapDriverFeature.C at line 420
    Did not find surface near face centre (5.041667 5.708333 3.712121)
--> FOAM Warning : 
    From void Foam::snappySnapDriver::calcNearestFace(Foam::label, const Foam::indirectPrimitivePatch&, const Foam::pointField&, const Foam::scalarField&, Foam::vectorField&, Foam::vectorField&, Foam::labelList&) const
    in file snappyHexMeshDriver/snappySnapDriverFeature.C at line 420
    Did not find surface near face centre (5.375 5.708333 3.712121)
--> FOAM Warning : 
    From void Foam::snappySnapDriver::calcNearestFace(Foam::label, const Foam::indirectPrimitivePatch&, const Foam::pointField&, const Foam::scalarField&, Foam::vectorField&, Foam::vectorField&, Foam::labelList&) const
    in file snappyHexMeshDriver/snappySnapDriverFeature.C at line 420
    Did not find surface near face centre (5.708333 5.708333 3.712121)
--> FOAM Warning : 
    From void Foam::snappySnapDriver::calcNearestFace(Foam::label, const Foam::indirectPrimitivePatch&, const Foam::pointField&, const Foam::scalarField&, Foam::vectorField&, Foam::vectorField&, Foam::labelList&) const
    in file snappyHexMeshDriver/snappySnapDriverFeature.C at line 420
    Did not find surface near face centre (5.97572 4.060531 3.960094)
--> FOAM Warning : 
    From void Foam::snappySnapDriver::calcNearestFace(Foam::label, const Foam::indirectPrimitivePatch&, const Foam::pointField&, const Foam::scalarField&, Foam::vectorField&, Foam::vectorField&, Foam::labelList&) const
    in file snappyHexMeshDriver/snappySnapDriverFeature.C at line 420
    Did not find surface near face centre (5.984412 4.375 3.963102)
--> FOAM Warning : 
[...]

Smoothing displacement ...
Iteration 0
Iteration 10
Iteration 20
Displacement smoothed in = 0.02 s


Moving mesh ...

Iteration 0
Moving mesh using displacement scaling : min:1 max:1
Checking faces in error :
    non-orthogonality > 65  degrees                        : 0
    faces with face pyramid volume < 1e-13                 : 0
    faces with face-decomposition tet quality < 1e-15      : 0
    faces with concavity > 80  degrees                     : 0
    faces with skewness > 4   (internal) or 20  (boundary) : 0
    faces with interpolation weights (0..1)  < 0.05        : 0
    faces with volume ratio of neighbour cells < 0.01      : 0
    faces with face twist < 0.02                           : 0
    faces on cells with determinant < 0.001                : 0
Successfully moved mesh
Moved mesh in = 0.06 s



Morph iteration 1
-----------------
Calculating patchDisplacement as distance to nearest surface point ...
    non-zone points : attract to nearest of all non-zone surfaces
    zone points     : attract to zone surface only

Wanted displacement : average:0 min:0 max:0
Calculated surface displacement in = 0 s


Detecting near surfaces ...
Overriding nearest with intersection of close gaps at 0 out of 1538 points.
Overriding displacement on features :
   implicit features    : false
   explicit features    : true
   multi-patch features : false

Detected 0 baffle edges out of 3072 edges.
Baffle points     : 0 of which attracted to :
    feature point : 0
    feature edge  : 0
    rest          : 0

Initially selected 0 mesh points out of 1538 for reverse attraction.
Selected 0 mesh points out of 1538 for reverse attraction.
Stringing feature edges : changed 0 points
Attraction:
    linear   : max:(0 0 0) avg:(0 0 0)
    feature  : max:(0 0 0) avg:(0 0 0)
Feature analysis : total master points :1538 of which attracted to :
    feature point   : 0
    feature edge    : 0
    nearest surface : 0
    rest            : 1538

Smoothing displacement ...
Iteration 0
Iteration 10
Iteration 20
Displacement smoothed in = 0.02 s


Moving mesh ...

Iteration 0
Moving mesh using displacement scaling : min:1 max:1
Checking faces in error :
    non-orthogonality > 65  degrees                        : 0
    faces with face pyramid volume < 1e-13                 : 0
    faces with face-decomposition tet quality < 1e-15      : 0
    faces with concavity > 80  degrees                     : 0
    faces with skewness > 4   (internal) or 20  (boundary) : 0
    faces with interpolation weights (0..1)  < 0.05        : 0
    faces with volume ratio of neighbour cells < 0.01      : 0
    faces with face twist < 0.02                           : 0
    faces on cells with determinant < 0.001                : 0
Successfully moved mesh
Moved mesh in = 0.05 s



Morph iteration 2
-----------------
Calculating patchDisplacement as distance to nearest surface point ...
    non-zone points : attract to nearest of all non-zone surfaces
    zone points     : attract to zone surface only

Wanted displacement : average:0 min:0 max:0
Calculated surface displacement in = 0 s


Detecting near surfaces ...
Overriding nearest with intersection of close gaps at 0 out of 1538 points.
Overriding displacement on features :
   implicit features    : false
   explicit features    : true
   multi-patch features : false

Detected 0 baffle edges out of 3072 edges.
Baffle points     : 0 of which attracted to :
    feature point : 0
    feature edge  : 0
    rest          : 0

Initially selected 0 mesh points out of 1538 for reverse attraction.
Selected 0 mesh points out of 1538 for reverse attraction.
Stringing feature edges : changed 0 points
Attraction:
    linear   : max:(0 0 0) avg:(0 0 0)
    feature  : max:(0 0 0) avg:(0 0 0)
Feature analysis : total master points :1538 of which attracted to :
    feature point   : 0
    feature edge    : 0
    nearest surface : 0
    rest            : 1538

Smoothing displacement ...
Iteration 0
Iteration 10
Iteration 20
Displacement smoothed in = 0.02 s


Moving mesh ...

Iteration 0
Moving mesh using displacement scaling : min:1 max:1
Checking faces in error :
    non-orthogonality > 65  degrees                        : 0
    faces with face pyramid volume < 1e-13                 : 0
    faces with face-decomposition tet quality < 1e-15      : 0
    faces with concavity > 80  degrees                     : 0
    faces with skewness > 4   (internal) or 20  (boundary) : 0
    faces with interpolation weights (0..1)  < 0.05        : 0
    faces with volume ratio of neighbour cells < 0.01      : 0
    faces with face twist < 0.02                           : 0
    faces on cells with determinant < 0.001                : 0
Successfully moved mesh
Moved mesh in = 0.06 s



Morph iteration 3
-----------------
Calculating patchDisplacement as distance to nearest surface point ...
    non-zone points : attract to nearest of all non-zone surfaces
    zone points     : attract to zone surface only

Wanted displacement : average:0 min:0 max:0
Calculated surface displacement in = 0 s


Detecting near surfaces ...
Overriding nearest with intersection of close gaps at 0 out of 1538 points.
Overriding displacement on features :
   implicit features    : false
   explicit features    : true
   multi-patch features : false

Detected 0 baffle edges out of 3072 edges.
Baffle points     : 0 of which attracted to :
    feature point : 0
    feature edge  : 0
    rest          : 0

Initially selected 0 mesh points out of 1538 for reverse attraction.
Selected 0 mesh points out of 1538 for reverse attraction.
Stringing feature edges : changed 0 points
Attraction:
    linear   : max:(0 0 0) avg:(0 0 0)
    feature  : max:(0 0 0) avg:(0 0 0)
Feature analysis : total master points :1538 of which attracted to :
    feature point   : 0
    feature edge    : 0
    nearest surface : 0
    rest            : 1538

Smoothing displacement ...
Iteration 0
Iteration 10
Iteration 20
Displacement smoothed in = 0.02 s


Moving mesh ...

Iteration 0
Moving mesh using displacement scaling : min:1 max:1
Checking faces in error :
    non-orthogonality > 65  degrees                        : 0
    faces with face pyramid volume < 1e-13                 : 0
    faces with face-decomposition tet quality < 1e-15      : 0
    faces with concavity > 80  degrees                     : 0
    faces with skewness > 4   (internal) or 20  (boundary) : 0
    faces with interpolation weights (0..1)  < 0.05        : 0
    faces with volume ratio of neighbour cells < 0.01      : 0
    faces with face twist < 0.02                           : 0
    faces on cells with determinant < 0.001                : 0
Successfully moved mesh
Moved mesh in = 0.05 s



Morph iteration 4
-----------------
Calculating patchDisplacement as distance to nearest surface point ...
    non-zone points : attract to nearest of all non-zone surfaces
    zone points     : attract to zone surface only

Wanted displacement : average:0 min:0 max:0
Calculated surface displacement in = 0 s


Detecting near surfaces ...
Overriding nearest with intersection of close gaps at 0 out of 1538 points.
Overriding displacement on features :
   implicit features    : false
   explicit features    : true
   multi-patch features : false

Detected 0 baffle edges out of 3072 edges.
Baffle points     : 0 of which attracted to :
    feature point : 0
    feature edge  : 0
    rest          : 0

Initially selected 0 mesh points out of 1538 for reverse attraction.
Selected 0 mesh points out of 1538 for reverse attraction.
Stringing feature edges : changed 0 points
Attraction:
    linear   : max:(0 0 0) avg:(0 0 0)
    feature  : max:(0 0 0) avg:(0 0 0)
Feature analysis : total master points :1538 of which attracted to :
    feature point   : 0
    feature edge    : 0
    nearest surface : 0
    rest            : 1538

Smoothing displacement ...
Iteration 0
Iteration 10
Iteration 20
Displacement smoothed in = 0.03 s


Moving mesh ...

Iteration 0
Moving mesh using displacement scaling : min:1 max:1
Checking faces in error :
    non-orthogonality > 65  degrees                        : 0
    faces with face pyramid volume < 1e-13                 : 0
    faces with face-decomposition tet quality < 1e-15      : 0
    faces with concavity > 80  degrees                     : 0
    faces with skewness > 4   (internal) or 20  (boundary) : 0
    faces with interpolation weights (0..1)  < 0.05        : 0
    faces with volume ratio of neighbour cells < 0.01      : 0
    faces with face twist < 0.02                           : 0
    faces on cells with determinant < 0.001                : 0
Successfully moved mesh
Moved mesh in = 0.05 s



Morph iteration 5
-----------------
Calculating patchDisplacement as distance to nearest surface point ...
    non-zone points : attract to nearest of all non-zone surfaces
    zone points     : attract to zone surface only

Wanted displacement : average:0 min:0 max:0
Calculated surface displacement in = 0.01 s


Detecting near surfaces ...
Overriding nearest with intersection of close gaps at 0 out of 1538 points.
Overriding displacement on features :
   implicit features    : false
   explicit features    : true
   multi-patch features : false

Detected 0 baffle edges out of 3072 edges.
Baffle points     : 0 of which attracted to :
    feature point : 0
    feature edge  : 0
    rest          : 0

Initially selected 0 mesh points out of 1538 for reverse attraction.
Selected 0 mesh points out of 1538 for reverse attraction.
Stringing feature edges : changed 0 points
Attraction:
    linear   : max:(0 0 0) avg:(0 0 0)
    feature  : max:(0 0 0) avg:(0 0 0)
Feature analysis : total master points :1538 of which attracted to :
    feature point   : 0
    feature edge    : 0
    nearest surface : 0
    rest            : 1538

Smoothing displacement ...
Iteration 0
Iteration 10
Iteration 20
Displacement smoothed in = 0.02 s


Moving mesh ...

Iteration 0
Moving mesh using displacement scaling : min:1 max:1
Checking faces in error :
    non-orthogonality > 65  degrees                        : 0
    faces with face pyramid volume < 1e-13                 : 0
    faces with face-decomposition tet quality < 1e-15      : 0
    faces with concavity > 80  degrees                     : 0
    faces with skewness > 4   (internal) or 20  (boundary) : 0
    faces with interpolation weights (0..1)  < 0.05        : 0
    faces with volume ratio of neighbour cells < 0.01      : 0
    faces with face twist < 0.02                           : 0
    faces on cells with determinant < 0.001                : 0
Successfully moved mesh
Moved mesh in = 0.05 s



Morph iteration 6
-----------------
Calculating patchDisplacement as distance to nearest surface point ...
    non-zone points : attract to nearest of all non-zone surfaces
    zone points     : attract to zone surface only

Wanted displacement : average:0 min:0 max:0
Calculated surface displacement in = 0 s


Detecting near surfaces ...
Overriding nearest with intersection of close gaps at 0 out of 1538 points.
Overriding displacement on features :
   implicit features    : false
   explicit features    : true
   multi-patch features : false

Detected 0 baffle edges out of 3072 edges.
Baffle points     : 0 of which attracted to :
    feature point : 0
    feature edge  : 0
    rest          : 0

Initially selected 0 mesh points out of 1538 for reverse attraction.
Selected 0 mesh points out of 1538 for reverse attraction.
Stringing feature edges : changed 0 points
Attraction:
    linear   : max:(0 0 0) avg:(0 0 0)
    feature  : max:(0 0 0) avg:(0 0 0)
Feature analysis : total master points :1538 of which attracted to :
    feature point   : 0
    feature edge    : 0
    nearest surface : 0
    rest            : 1538

Smoothing displacement ...
Iteration 0
Iteration 10
Iteration 20
Displacement smoothed in = 0.02 s


Moving mesh ...

Iteration 0
Moving mesh using displacement scaling : min:1 max:1
Checking faces in error :
    non-orthogonality > 65  degrees                        : 0
    faces with face pyramid volume < 1e-13                 : 0
    faces with face-decomposition tet quality < 1e-15      : 0
    faces with concavity > 80  degrees                     : 0
    faces with skewness > 4   (internal) or 20  (boundary) : 0
    faces with interpolation weights (0..1)  < 0.05        : 0
    faces with volume ratio of neighbour cells < 0.01      : 0
    faces with face twist < 0.02                           : 0
    faces on cells with determinant < 0.001                : 0
Successfully moved mesh
Moved mesh in = 0.06 s



Morph iteration 7
-----------------
Calculating patchDisplacement as distance to nearest surface point ...
    non-zone points : attract to nearest of all non-zone surfaces
    zone points     : attract to zone surface only

Wanted displacement : average:0 min:0 max:0
Calculated surface displacement in = 0 s


Detecting near surfaces ...
Overriding nearest with intersection of close gaps at 0 out of 1538 points.
Overriding displacement on features :
   implicit features    : false
   explicit features    : true
   multi-patch features : false

Detected 0 baffle edges out of 3072 edges.
Baffle points     : 0 of which attracted to :
    feature point : 0
    feature edge  : 0
    rest          : 0

Initially selected 0 mesh points out of 1538 for reverse attraction.
Selected 0 mesh points out of 1538 for reverse attraction.
Stringing feature edges : changed 0 points
Attraction:
    linear   : max:(0 0 0) avg:(0 0 0)
    feature  : max:(0 0 0) avg:(0 0 0)
Feature analysis : total master points :1538 of which attracted to :
    feature point   : 0
    feature edge    : 0
    nearest surface : 0
    rest            : 1538

Smoothing displacement ...
Iteration 0
Iteration 10
Iteration 20
Displacement smoothed in = 0.02 s


Moving mesh ...

Iteration 0
Moving mesh using displacement scaling : min:1 max:1
Checking faces in error :
    non-orthogonality > 65  degrees                        : 0
    faces with face pyramid volume < 1e-13                 : 0
    faces with face-decomposition tet quality < 1e-15      : 0
    faces with concavity > 80  degrees                     : 0
    faces with skewness > 4   (internal) or 20  (boundary) : 0
    faces with interpolation weights (0..1)  < 0.05        : 0
    faces with volume ratio of neighbour cells < 0.01      : 0
    faces with face twist < 0.02                           : 0
    faces on cells with determinant < 0.001                : 0
Successfully moved mesh
Moved mesh in = 0.06 s



Morph iteration 8
-----------------
Calculating patchDisplacement as distance to nearest surface point ...
    non-zone points : attract to nearest of all non-zone surfaces
    zone points     : attract to zone surface only

Wanted displacement : average:0 min:0 max:0
Calculated surface displacement in = 0 s


Detecting near surfaces ...
Overriding nearest with intersection of close gaps at 0 out of 1538 points.
Overriding displacement on features :
   implicit features    : false
   explicit features    : true
   multi-patch features : false

Detected 0 baffle edges out of 3072 edges.
Baffle points     : 0 of which attracted to :
    feature point : 0
    feature edge  : 0
    rest          : 0

Initially selected 0 mesh points out of 1538 for reverse attraction.
Selected 0 mesh points out of 1538 for reverse attraction.
Stringing feature edges : changed 0 points
Attraction:
    linear   : max:(0 0 0) avg:(0 0 0)
    feature  : max:(0 0 0) avg:(0 0 0)
Feature analysis : total master points :1538 of which attracted to :
    feature point   : 0
    feature edge    : 0
    nearest surface : 0
    rest            : 1538

Smoothing displacement ...
Iteration 0
Iteration 10
Iteration 20
Displacement smoothed in = 0.02 s


Moving mesh ...

Iteration 0
Moving mesh using displacement scaling : min:1 max:1
Checking faces in error :
    non-orthogonality > 65  degrees                        : 0
    faces with face pyramid volume < 1e-13                 : 0
    faces with face-decomposition tet quality < 1e-15      : 0
    faces with concavity > 80  degrees                     : 0
    faces with skewness > 4   (internal) or 20  (boundary) : 0
    faces with interpolation weights (0..1)  < 0.05        : 0
    faces with volume ratio of neighbour cells < 0.01      : 0
    faces with face twist < 0.02                           : 0
    faces on cells with determinant < 0.001                : 0
Successfully moved mesh
Moved mesh in = 0.06 s



Morph iteration 9
-----------------
Calculating patchDisplacement as distance to nearest surface point ...
    non-zone points : attract to nearest of all non-zone surfaces
    zone points     : attract to zone surface only

Wanted displacement : average:0 min:0 max:0
Calculated surface displacement in = 0 s


Detecting near surfaces ...
Overriding nearest with intersection of close gaps at 0 out of 1538 points.
Overriding displacement on features :
   implicit features    : false
   explicit features    : true
   multi-patch features : false

Detected 0 baffle edges out of 3072 edges.
Baffle points     : 0 of which attracted to :
    feature point : 0
    feature edge  : 0
    rest          : 0

Initially selected 0 mesh points out of 1538 for reverse attraction.
Selected 0 mesh points out of 1538 for reverse attraction.
Stringing feature edges : changed 0 points
Attraction:
    linear   : max:(0 0 0) avg:(0 0 0)
    feature  : max:(0 0 0) avg:(0 0 0)
Feature analysis : total master points :1538 of which attracted to :
    feature point   : 0
    feature edge    : 0
    nearest surface : 0
    rest            : 1538

Smoothing displacement ...
Iteration 0
Iteration 10
Iteration 20
Displacement smoothed in = 0.02 s


Moving mesh ...

Iteration 0
Moving mesh using displacement scaling : min:1 max:1
Checking faces in error :
    non-orthogonality > 65  degrees                        : 0
    faces with face pyramid volume < 1e-13                 : 0
    faces with face-decomposition tet quality < 1e-15      : 0
    faces with concavity > 80  degrees                     : 0
    faces with skewness > 4   (internal) or 20  (boundary) : 0
    faces with interpolation weights (0..1)  < 0.05        : 0
    faces with volume ratio of neighbour cells < 0.01      : 0
    faces with face twist < 0.02                           : 0
    faces on cells with determinant < 0.001                : 0
Successfully moved mesh
Moved mesh in = 0.06 s


Edge intersection testing:
    Number of edges             : 120564
    Number of edges to retest   : 1536
    Number of intersected edges : 1536
Repatching faces according to nearest surface ...
Repatched 0 faces in = 0.03 s


Edge intersection testing:
    Number of edges             : 120564
    Number of edges to retest   : 22980
    Number of intersected edges : 1536
Merging 0 sets of faces.

No faces merged ...

Merging all points on surface that
- are used by only two boundary faces and
- make an angle with a cosine of more than 0.8660254.

No straight edges simplified and no points removed ...
Snapped mesh : cells:38756  faces:120564  points:43200
Cells per refinement level:
    0	32212
    1	784
    2	5760
Writing mesh to time constant
Wrote mesh in = 0.06 s.
Mesh snapped in = 1.15 s.
Checking final mesh ...
Checking faces in error :
    non-orthogonality > 65  degrees                        : 0
    faces with face pyramid volume < 1e-13                 : 0
    faces with face-decomposition tet quality < 1e-15      : 0
    faces with concavity > 80  degrees                     : 0
    faces with skewness > 4   (internal) or 20  (boundary) : 0
    faces with interpolation weights (0..1)  < 0.05        : 0
    faces with volume ratio of neighbour cells < 0.01      : 0
    faces with face twist < 0.02                           : 0
    faces on cells with determinant < 0.001                : 0
Finished meshing without any errors
Finished meshing in = 1.72 s.
End

